data_image0
_chemical_formula_structural       Li4S2F2O4NS2F2O4NS2F2O4NS2F2O4N
_chemical_formula_sum              "Li4 S8 F8 O16 N4"
_cell_length_a       93.5399
_cell_length_b       93.5399
_cell_length_c       93.5399
_cell_angle_alpha    90
_cell_angle_beta     90
_cell_angle_gamma    90

_space_group_name_H-M_alt    "P 1"
_space_group_IT_number       1

loop_
  _space_group_symop_operation_xyz
  'x, y, z'

loop_
  _atom_site_type_symbol
  _atom_site_label
  _atom_site_symmetry_multiplicity
  _atom_site_fract_x
  _atom_site_fract_y
  _atom_site_fract_z
  _atom_site_occupancy
  Li  Li1       1.0  0.37938  0.47985  0.61412  1.0000
  Li  Li2       1.0  0.37193  0.50616  0.56641  1.0000
  Li  Li3       1.0  0.35812  0.54558  0.59995  1.0000
  Li  Li4       1.0  0.38716  0.55752  0.54964  1.0000
  S   S1        1.0  0.38593  0.47905  0.58037  1.0000
  S   S2        1.0  0.36221  0.47584  0.56064  1.0000
  F   F1        1.0  0.40014  0.47147  0.57561  1.0000
  F   F2        1.0  0.34727  0.47150  0.56694  1.0000
  O   O1        1.0  0.38491  0.47761  0.59551  1.0000
  O   O2        1.0  0.38594  0.49390  0.57516  1.0000
  O   O3        1.0  0.36153  0.49111  0.55822  1.0000
  O   O4        1.0  0.36233  0.46787  0.54788  1.0000
  N   N1        1.0  0.37363  0.47044  0.57229  1.0000
  S   S3        1.0  0.39279  0.50814  0.63166  1.0000
  S   S4        1.0  0.37559  0.53130  0.62305  1.0000
  F   F3        1.0  0.40943  0.50733  0.63026  1.0000
  F   F4        1.0  0.38241  0.54549  0.62860  1.0000
  O   O5        1.0  0.38798  0.49393  0.62782  1.0000
  O   O6        1.0  0.39054  0.51143  0.64669  1.0000
  O   O7        1.0  0.36868  0.53314  0.60959  1.0000
  O   O8        1.0  0.36511  0.52764  0.63364  1.0000
  N   N2        1.0  0.38753  0.52009  0.62134  1.0000
  S   S5        1.0  0.35086  0.52679  0.57714  1.0000
  S   S6        1.0  0.36434  0.53362  0.55055  1.0000
  F   F5        1.0  0.33763  0.52012  0.57072  1.0000
  F   F6        1.0  0.35247  0.52771  0.53910  1.0000
  O   O9        1.0  0.34483  0.53365  0.58885  1.0000
  O   O10       1.0  0.36133  0.51572  0.57946  1.0000
  O   O11       1.0  0.37136  0.54583  0.54471  1.0000
  O   O12       1.0  0.37388  0.52253  0.55429  1.0000
  N   N3        1.0  0.35491  0.53672  0.56438  1.0000
  S   S7        1.0  0.34862  0.57244  0.58546  1.0000
  S   S8        1.0  0.37686  0.56554  0.57796  1.0000
  F   F7        1.0  0.34011  0.56135  0.57651  1.0000
  F   F8        1.0  0.38437  0.57283  0.59054  1.0000
  O   O13       1.0  0.33962  0.58452  0.58482  1.0000
  O   O14       1.0  0.34991  0.56585  0.59903  1.0000
  O   O15       1.0  0.37351  0.55133  0.58179  1.0000
  O   O16       1.0  0.38683  0.56750  0.56610  1.0000
  N   N4        1.0  0.36243  0.57395  0.57609  1.0000
