data_image0
_chemical_formula_structural       Li4S2F2O4NS2F2O4NS2F2O4NS2F2O4NS2F2O4N
_chemical_formula_sum              "Li4 S10 F10 O20 N5"
_cell_length_a       93.5399
_cell_length_b       93.5399
_cell_length_c       93.5399
_cell_angle_alpha    90
_cell_angle_beta     90
_cell_angle_gamma    90

_space_group_name_H-M_alt    "P 1"
_space_group_IT_number       1

loop_
  _space_group_symop_operation_xyz
  'x, y, z'

loop_
  _atom_site_type_symbol
  _atom_site_label
  _atom_site_symmetry_multiplicity
  _atom_site_fract_x
  _atom_site_fract_y
  _atom_site_fract_z
  _atom_site_occupancy
  Li  Li1       1.0  0.86064  0.84518  0.75754  1.0000
  Li  Li2       1.0  0.84142  0.87903  0.74080  1.0000
  Li  Li3       1.0  0.83273  0.88158  0.70544  1.0000
  Li  Li4       1.0  0.84608  0.85475  0.68584  1.0000
  S   S1        1.0  0.83886  0.85102  0.78270  1.0000
  S   S2        1.0  0.82876  0.87838  0.77453  1.0000
  F   F1        1.0  0.82959  0.84115  0.77395  1.0000
  F   F2        1.0  0.83831  0.89035  0.78211  1.0000
  O   O1        1.0  0.84203  0.84314  0.79594  1.0000
  O   O2        1.0  0.85051  0.85344  0.77315  1.0000
  O   O3        1.0  0.83374  0.87560  0.76047  1.0000
  O   O4        1.0  0.81445  0.88413  0.77388  1.0000
  N   N1        1.0  0.82916  0.86489  0.78468  1.0000
  S   S3        1.0  0.87195  0.86666  0.73843  1.0000
  S   S4        1.0  0.86305  0.87084  0.71008  1.0000
  F   F3        1.0  0.88400  0.87817  0.74087  1.0000
  F   F4        1.0  0.87365  0.88283  0.70415  1.0000
  O   O5        1.0  0.87514  0.85431  0.74684  1.0000
  O   O6        1.0  0.85945  0.87415  0.74259  1.0000
  O   O7        1.0  0.85989  0.86203  0.69785  1.0000
  O   O8        1.0  0.85038  0.87781  0.71526  1.0000
  N   N2        1.0  0.87127  0.86296  0.72180  1.0000
  S   S5        1.0  0.83551  0.84578  0.73218  1.0000
  S   S6        1.0  0.82618  0.84661  0.70382  1.0000
  F   F5        1.0  0.82372  0.83920  0.74119  1.0000
  F   F6        1.0  0.81032  0.84167  0.70492  1.0000
  O   O9        1.0  0.83231  0.86099  0.73265  1.0000
  O   O10       1.0  0.84813  0.84145  0.73922  1.0000
  O   O11       1.0  0.82584  0.86158  0.70517  1.0000
  O   O12       1.0  0.83091  0.84219  0.69012  1.0000
  N   N3        1.0  0.83396  0.83878  0.71686  1.0000
  S   S7        1.0  0.82166  0.90834  0.73840  1.0000
  S   S8        1.0  0.81394  0.90792  0.70833  1.0000
  F   F7        1.0  0.80817  0.90304  0.74717  1.0000
  F   F8        1.0  0.79790  0.90868  0.70441  1.0000
  O   O13       1.0  0.82724  0.91938  0.74705  1.0000
  O   O14       1.0  0.83100  0.89626  0.73562  1.0000
  O   O15       1.0  0.82058  0.91779  0.69884  1.0000
  O   O16       1.0  0.81651  0.89316  0.70557  1.0000
  N   N4        1.0  0.81441  0.91373  0.72390  1.0000
  S   S9        1.0  0.84248  0.87672  0.66791  1.0000
  S   S10       1.0  0.86597  0.88387  0.65310  1.0000
  F   F9        1.0  0.82991  0.87607  0.65805  1.0000
  F   F10       1.0  0.87575  0.87274  0.65965  1.0000
  O   O17       1.0  0.83609  0.88096  0.68146  1.0000
  O   O18       1.0  0.84824  0.86266  0.66772  1.0000
  O   O19       1.0  0.86029  0.87710  0.64108  1.0000
  O   O20       1.0  0.87525  0.89500  0.65069  1.0000
  N   N5        1.0  0.85354  0.88787  0.66385  1.0000
