data_image0
_chemical_formula_structural       Li19S2F2O4NS2F2O4NS2F2O4NS2F2O4NS2F2O4NS2F2O4NS2F2O4NS2F2O4NS2F2O4NS2F2O4NS2F2O4NS2F2O4NS2F2O4NS2F2O4NS2F2O4NS2F2O4NS2F2O4NS2F2O4N
_chemical_formula_sum              "Li19 S36 F36 O72 N18"
_cell_length_a       93.5399
_cell_length_b       93.5399
_cell_length_c       93.5399
_cell_angle_alpha    90
_cell_angle_beta     90
_cell_angle_gamma    90

_space_group_name_H-M_alt    "P 1"
_space_group_IT_number       1

loop_
  _space_group_symop_operation_xyz
  'x, y, z'

loop_
  _atom_site_type_symbol
  _atom_site_label
  _atom_site_symmetry_multiplicity
  _atom_site_fract_x
  _atom_site_fract_y
  _atom_site_fract_z
  _atom_site_occupancy
  Li  Li1       1.0  0.90968  0.77492  0.99522  1.0000
  Li  Li2       1.0  0.92884  0.81288  0.95855  1.0000
  Li  Li3       1.0  0.87284  0.77633  0.99886  1.0000
  Li  Li4       1.0  0.90857  0.72682  0.00131  1.0000
  Li  Li5       1.0  0.83403  0.74956  0.02387  1.0000
  Li  Li6       1.0  0.93479  0.80305  0.02619  1.0000
  Li  Li7       1.0  0.93622  0.85645  0.88724  1.0000
  Li  Li8       1.0  0.89723  0.82115  0.91666  1.0000
  Li  Li9       1.0  0.87068  0.75134  0.06036  1.0000
  Li  Li10      1.0  0.87108  0.70313  0.00146  1.0000
  Li  Li11      1.0  0.92486  0.67947  0.97803  1.0000
  Li  Li12      1.0  0.96645  0.87365  0.98195  1.0000
  Li  Li13      1.0  0.99562  0.86387  0.90619  1.0000
  Li  Li14      1.0  0.99636  0.90967  0.92295  1.0000
  Li  Li15      1.0  0.93390  0.90714  0.90823  1.0000
  Li  Li16      1.0  0.98265  0.93583  0.96306  1.0000
  Li  Li17      1.0  0.03174  0.90457  0.91545  1.0000
  Li  Li18      1.0  0.97952  0.93866  0.88660  1.0000
  Li  Li19      1.0  0.06473  0.92690  0.88153  1.0000
  S   S1        1.0  0.90318  0.78721  0.96368  1.0000
  S   S2        1.0  0.87265  0.78357  0.96468  1.0000
  F   F1        1.0  0.91122  0.77604  0.95356  1.0000
  F   F2        1.0  0.87147  0.76845  0.95789  1.0000
  O   O1        1.0  0.90411  0.78083  0.97707  1.0000
  O   O2        1.0  0.91156  0.79958  0.96127  1.0000
  O   O3        1.0  0.87178  0.78059  0.97956  1.0000
  O   O4        1.0  0.86056  0.79118  0.95963  1.0000
  N   N1        1.0  0.88709  0.78854  0.95871  1.0000
  S   S3        1.0  0.88692  0.75267  0.99620  1.0000
  S   S4        1.0  0.85796  0.74362  0.00061  1.0000
  F   F3        1.0  0.88988  0.75527  0.97989  1.0000
  F   F4        1.0  0.84604  0.74894  0.99024  1.0000
  O   O5        1.0  0.89184  0.73845  0.99923  1.0000
  O   O6        1.0  0.89488  0.76420  0.00231  1.0000
  O   O7        1.0  0.86156  0.72896  0.99704  1.0000
  O   O8        1.0  0.85230  0.74365  0.01461  1.0000
  N   N2        1.0  0.87040  0.75479  0.99854  1.0000
  S   S5        1.0  0.89328  0.79807  0.01174  1.0000
  S   S6        1.0  0.90376  0.81532  0.03247  1.0000
  F   F5        1.0  0.89117  0.81139  0.00306  1.0000
  F   F6        1.0  0.89663  0.82856  0.02631  1.0000
  O   O9        1.0  0.88077  0.78998  0.00917  1.0000
  O   O10       1.0  0.90619  0.79235  0.00584  1.0000
  O   O11       1.0  0.90392  0.81695  0.04747  1.0000
  O   O12       1.0  0.91771  0.81388  0.02658  1.0000
  N   N3        1.0  0.89307  0.80288  0.02833  1.0000
  S   S7        1.0  0.92345  0.83184  0.93422  1.0000
  S   S8        1.0  0.92598  0.82887  0.90450  1.0000
  F   F7        1.0  0.92254  0.84865  0.93476  1.0000
  F   F8        1.0  0.93094  0.81475  0.89698  1.0000
  O   O13       1.0  0.93187  0.82842  0.94657  1.0000
  O   O14       1.0  0.90892  0.82604  0.93397  1.0000
  O   O15       1.0  0.91073  0.82810  0.90468  1.0000
  O   O16       1.0  0.93138  0.83986  0.89506  1.0000
  N   N4        1.0  0.93217  0.82954  0.91972  1.0000
  S   S9        1.0  0.84404  0.76825  0.04729  1.0000
  S   S10       1.0  0.84271  0.77938  0.01960  1.0000
  F   F9        1.0  0.83456  0.77951  0.05576  1.0000
  F   F10       1.0  0.83490  0.79350  0.02112  1.0000
  O   O17       1.0  0.85463  0.76370  0.05743  1.0000
  O   O18       1.0  0.83387  0.75683  0.04378  1.0000
  O   O19       1.0  0.85315  0.78193  0.00858  1.0000
  O   O20       1.0  0.83202  0.76956  0.01554  1.0000
  N   N5        1.0  0.84987  0.77693  0.03475  1.0000
  S   S11       1.0  0.89991  0.70032  0.01946  1.0000
  S   S12       1.0  0.91923  0.67858  0.01056  1.0000
  F   F11       1.0  0.90021  0.70115  0.03568  1.0000
  F   F12       1.0  0.93036  0.68383  0.02171  1.0000
  O   O21       1.0  0.88564  0.70439  0.01611  1.0000
  O   O22       1.0  0.90968  0.71084  0.01510  1.0000
  O   O23       1.0  0.92075  0.66385  0.01214  1.0000
  O   O24       1.0  0.92287  0.68448  0.99750  1.0000
  N   N6        1.0  0.90452  0.68472  0.01509  1.0000
  S   S13       1.0  0.87911  0.70728  0.97067  1.0000
  S   S14       1.0  0.90855  0.70943  0.97140  1.0000
  F   F13       1.0  0.87235  0.72184  0.96634  1.0000
  F   F14       1.0  0.91550  0.72238  0.96192  1.0000
  O   O25       1.0  0.88028  0.70715  0.98632  1.0000
  O   O26       1.0  0.86863  0.69817  0.96484  1.0000
  O   O27       1.0  0.90735  0.71523  0.98576  1.0000
  O   O28       1.0  0.91904  0.69857  0.96943  1.0000
  N   N7        1.0  0.89376  0.70564  0.96404  1.0000
  S   S15       1.0  0.93531  0.77041  0.01659  1.0000
  S   S16       1.0  0.93006  0.75119  0.99323  1.0000
  F   F15       1.0  0.92363  0.76418  0.02835  1.0000
  F   F16       1.0  0.94569  0.75206  0.98753  1.0000
  O   O29       1.0  0.93463  0.78561  0.01856  1.0000
  O   O30       1.0  0.94832  0.76373  0.01968  1.0000
  O   O31       1.0  0.92803  0.73788  0.00083  1.0000
  O   O32       1.0  0.92039  0.75282  0.98154  1.0000
  N   N8        1.0  0.92900  0.76580  0.00163  1.0000
  S   S17       1.0  0.83811  0.69983  0.00702  1.0000
  S   S18       1.0  0.82139  0.71850  0.02341  1.0000
  F   F17       1.0  0.83225  0.70735  0.99265  1.0000
  F   F18       1.0  0.82010  0.71289  0.03886  1.0000
  O   O33       1.0  0.82999  0.68663  0.00993  1.0000
  O   O34       1.0  0.85336  0.69725  0.00502  1.0000
  O   O35       1.0  0.82268  0.73384  0.02434  1.0000
  O   O36       1.0  0.80925  0.71379  0.01551  1.0000
  N   N9        1.0  0.83597  0.71127  0.01911  1.0000
  S   S19       1.0  0.96227  0.82139  0.01243  1.0000
  S   S20       1.0  0.97353  0.84377  0.99505  1.0000
  F   F19       1.0  0.96819  0.80942  0.00326  1.0000
  F   F20       1.0  0.97449  0.83565  0.97985  1.0000
  O   O37       1.0  0.94876  0.81582  0.01769  1.0000
  O   O38       1.0  0.97206  0.82288  0.02371  1.0000
  O   O39       1.0  0.96864  0.85753  0.99229  1.0000
  O   O40       1.0  0.98746  0.84166  0.00110  1.0000
  N   N10       1.0  0.96107  0.83488  0.00267  1.0000
  S   S21       1.0  0.97480  0.88791  0.90999  1.0000
  S   S22       1.0  0.94508  0.87944  0.91355  1.0000
  F   F21       1.0  0.97621  0.89767  0.89590  1.0000
  F   F22       1.0  0.94329  0.87377  0.92960  1.0000
  O   O41       1.0  0.97945  0.87409  0.90513  1.0000
  O   O42       1.0  0.98430  0.89436  0.92060  1.0000
  O   O43       1.0  0.93307  0.88783  0.91037  1.0000
  O   O44       1.0  0.94656  0.86612  0.90538  1.0000
  N   N11       1.0  0.95889  0.89009  0.91501  1.0000
  S   S23       1.0  0.91536  0.65662  0.95581  1.0000
  S   S24       1.0  0.93967  0.64823  0.97111  1.0000
  F   F23       1.0  0.90205  0.65216  0.96480  1.0000
  F   F24       1.0  0.93428  0.63997  0.98488  1.0000
  O   O45       1.0  0.91192  0.65706  0.94063  1.0000
  O   O46       1.0  0.91891  0.67058  0.96085  1.0000
  O   O47       1.0  0.95214  0.64019  0.96759  1.0000
  O   O48       1.0  0.94098  0.66291  0.97676  1.0000
  N   N12       1.0  0.92694  0.64517  0.96020  1.0000
  S   S25       1.0  0.97288  0.92710  0.99328  1.0000
  S   S26       1.0  0.95578  0.90314  0.99918  1.0000
  F   F25       1.0  0.98558  0.91840  0.99835  1.0000
  F   F26       1.0  0.93922  0.90451  0.99758  1.0000
  O   O49       1.0  0.96905  0.93604  0.00539  1.0000
  O   O50       1.0  0.97868  0.93482  0.98125  1.0000
  O   O51       1.0  0.96068  0.88975  0.99332  1.0000
  O   O52       1.0  0.95824  0.90522  0.01400  1.0000
  N   N13       1.0  0.96213  0.91482  0.98930  1.0000
  S   S27       1.0  0.01688  0.87567  0.92676  1.0000
  S   S28       1.0  0.04706  0.87777  0.93090  1.0000
  F   F27       1.0  0.00718  0.88022  0.93936  1.0000
  F   F28       1.0  0.05258  0.86829  0.91852  1.0000
  O   O53       1.0  0.01024  0.86379  0.92005  1.0000
  O   O54       1.0  0.01775  0.88692  0.91687  1.0000
  O   O55       1.0  0.04611  0.89233  0.92540  1.0000
  O   O56       1.0  0.05645  0.87475  0.94181  1.0000
  N   N14       1.0  0.03148  0.87133  0.93326  1.0000
  S   S29       1.0  0.03114  0.91736  0.88436  1.0000
  S   S30       1.0  0.00871  0.92857  0.89974  1.0000
  F   F29       1.0  0.02619  0.90665  0.87269  1.0000
  F   F30       1.0  0.01545  0.93976  0.90964  1.0000
  O   O57       1.0  0.03405  0.90811  0.89620  1.0000
  O   O58       1.0  0.04304  0.92424  0.87893  1.0000
  O   O59       1.0  0.99468  0.93433  0.89725  1.0000
  O   O60       1.0  0.00854  0.91536  0.90796  1.0000
  N   N15       1.0  0.01817  0.92713  0.88578  1.0000
  S   S31       1.0  0.97588  0.93597  0.93048  1.0000
  S   S32       1.0  0.95389  0.93523  0.90946  1.0000
  F   F31       1.0  0.98628  0.94899  0.92809  1.0000
  F   F32       1.0  0.94108  0.94654  0.90471  1.0000
  O   O61       1.0  0.98211  0.92291  0.92514  1.0000
  O   O62       1.0  0.97416  0.93537  0.94538  1.0000
  O   O63       1.0  0.96220  0.93555  0.89683  1.0000
  O   O64       1.0  0.94613  0.92248  0.91070  1.0000
  N   N16       1.0  0.96114  0.94142  0.92370  1.0000
  S   S33       1.0  0.03657  0.93062  0.93817  1.0000
  S   S34       1.0  0.01133  0.91769  0.95164  1.0000
  F   F33       1.0  0.04981  0.92709  0.94733  1.0000
  F   F34       1.0  0.01955  0.90793  0.96296  1.0000
  O   O65       1.0  0.03978  0.94501  0.93375  1.0000
  O   O66       1.0  0.03584  0.92154  0.92613  1.0000
  O   O67       1.0  0.99930  0.92275  0.96007  1.0000
  O   O68       1.0  0.00800  0.90850  0.94018  1.0000
  N   N17       1.0  0.02340  0.93030  0.94880  1.0000
  S   S35       1.0  0.08731  0.94064  0.86073  1.0000
  S   S36       1.0  0.06511  0.95063  0.84256  1.0000
  F   F35       1.0  0.09481  0.95121  0.87097  1.0000
  F   F36       1.0  0.05481  0.95075  0.85563  1.0000
  O   O69       1.0  0.09777  0.93130  0.85498  1.0000
  O   O70       1.0  0.07677  0.93397  0.87019  1.0000
  O   O71       1.0  0.06131  0.96332  0.83497  1.0000
  O   O72       1.0  0.06166  0.93803  0.83484  1.0000
  N   N18       1.0  0.08037  0.95145  0.84915  1.0000
