data_image0
_chemical_formula_structural       Li20S2F2O4NS2F2O4NS2F2O4NS2F2O4NS2F2O4NS2F2O4NS2F2O4NS2F2O4NS2F2O4NS2F2O4NS2F2O4NS2F2O4NS2F2O4NS2F2O4NS2F2O4NS2F2O4NS2F2O4NS2F2O4NS2F2O4N
_chemical_formula_sum              "Li20 S38 F38 O76 N19"
_cell_length_a       93.5399
_cell_length_b       93.5399
_cell_length_c       93.5399
_cell_angle_alpha    90
_cell_angle_beta     90
_cell_angle_gamma    90

_space_group_name_H-M_alt    "P 1"
_space_group_IT_number       1

loop_
  _space_group_symop_operation_xyz
  'x, y, z'

loop_
  _atom_site_type_symbol
  _atom_site_label
  _atom_site_symmetry_multiplicity
  _atom_site_fract_x
  _atom_site_fract_y
  _atom_site_fract_z
  _atom_site_occupancy
  Li  Li1       1.0  0.64418  0.16111  0.45575  1.0000
  Li  Li2       1.0  0.63790  0.20613  0.48133  1.0000
  Li  Li3       1.0  0.64973  0.22876  0.41175  1.0000
  Li  Li4       1.0  0.66395  0.18240  0.41076  1.0000
  Li  Li5       1.0  0.64590  0.14976  0.48467  1.0000
  Li  Li6       1.0  0.61331  0.19519  0.43195  1.0000
  Li  Li7       1.0  0.62970  0.17506  0.51023  1.0000
  Li  Li8       1.0  0.61355  0.18095  0.56062  1.0000
  Li  Li9       1.0  0.66240  0.23929  0.44420  1.0000
  Li  Li10      1.0  0.69535  0.23413  0.40346  1.0000
  Li  Li11      1.0  0.64941  0.15241  0.54689  1.0000
  Li  Li12      1.0  0.66912  0.12626  0.50307  1.0000
  Li  Li13      1.0  0.67927  0.09095  0.50905  1.0000
  Li  Li14      1.0  0.74703  0.23008  0.37548  1.0000
  Li  Li15      1.0  0.76135  0.23123  0.45394  1.0000
  Li  Li16      1.0  0.76382  0.20622  0.41384  1.0000
  Li  Li17      1.0  0.80304  0.19469  0.41323  1.0000
  Li  Li18      1.0  0.77639  0.17165  0.43425  1.0000
  Li  Li19      1.0  0.78127  0.14322  0.43011  1.0000
  Li  Li20      1.0  0.72164  0.16428  0.42301  1.0000
  S   S1        1.0  0.65740  0.19074  0.46115  1.0000
  S   S2        1.0  0.65147  0.20112  0.43456  1.0000
  F   F1        1.0  0.67360  0.19314  0.46375  1.0000
  F   F2        1.0  0.63546  0.19765  0.43256  1.0000
  O   O1        1.0  0.65560  0.17622  0.45672  1.0000
  O   O2        1.0  0.65095  0.19336  0.47461  1.0000
  O   O3        1.0  0.65342  0.21423  0.42713  1.0000
  O   O4        1.0  0.65809  0.18876  0.42857  1.0000
  N   N1        1.0  0.65281  0.20249  0.45066  1.0000
  S   S3        1.0  0.62013  0.16885  0.47732  1.0000
  S   S4        1.0  0.61155  0.19470  0.46576  1.0000
  F   F3        1.0  0.60524  0.16128  0.47986  1.0000
  F   F4        1.0  0.59706  0.19609  0.47460  1.0000
  O   O5        1.0  0.62345  0.17677  0.48982  1.0000
  O   O6        1.0  0.63007  0.15773  0.47352  1.0000
  O   O7        1.0  0.62155  0.20432  0.47145  1.0000
  O   O8        1.0  0.60798  0.19946  0.45137  1.0000
  N   N2        1.0  0.61576  0.17831  0.46486  1.0000
  S   S5        1.0  0.62553  0.16393  0.42788  1.0000
  S   S6        1.0  0.65208  0.15754  0.41504  1.0000
  F   F5        1.0  0.61585  0.15199  0.42178  1.0000
  F   F6        1.0  0.64697  0.14167  0.40905  1.0000
  O   O9        1.0  0.61668  0.17625  0.42855  1.0000
  O   O10       1.0  0.63019  0.15894  0.44143  1.0000
  O   O11       1.0  0.66061  0.16391  0.40445  1.0000
  O   O12       1.0  0.65966  0.15476  0.42785  1.0000
  N   N3        1.0  0.63716  0.16549  0.41602  1.0000
  S   S7        1.0  0.62386  0.20607  0.51020  1.0000
  S   S8        1.0  0.60652  0.18898  0.52689  1.0000
  F   F7        1.0  0.63010  0.21717  0.52035  1.0000
  F   F8        1.0  0.59833  0.17867  0.51570  1.0000
  O   O13       1.0  0.61157  0.21324  0.50466  1.0000
  O   O14       1.0  0.63479  0.20460  0.50026  1.0000
  O   O15       1.0  0.60910  0.18089  0.53976  1.0000
  O   O16       1.0  0.59698  0.20016  0.53013  1.0000
  N   N4        1.0  0.62076  0.19196  0.51825  1.0000
  S   S9        1.0  0.64486  0.20348  0.39308  1.0000
  S   S10       1.0  0.61983  0.21267  0.40570  1.0000
  F   F9        1.0  0.63902  0.20291  0.37743  1.0000
  F   F10       1.0  0.61147  0.21505  0.39118  1.0000
  O   O17       1.0  0.65566  0.19270  0.39393  1.0000
  O   O18       1.0  0.64913  0.21751  0.39483  1.0000
  O   O19       1.0  0.60958  0.20698  0.41521  1.0000
  O   O20       1.0  0.62580  0.22626  0.41022  1.0000
  N   N5        1.0  0.63174  0.20065  0.40342  1.0000
  S   S11       1.0  0.66997  0.25427  0.40133  1.0000
  S   S12       1.0  0.66965  0.26789  0.42848  1.0000
  F   F11       1.0  0.66181  0.26237  0.38945  1.0000
  F   F12       1.0  0.65353  0.27080  0.42821  1.0000
  O   O21       1.0  0.65878  0.24607  0.40759  1.0000
  O   O22       1.0  0.68216  0.24686  0.39571  1.0000
  O   O23       1.0  0.67117  0.25565  0.43748  1.0000
  O   O24       1.0  0.67533  0.28019  0.43462  1.0000
  N   N6        1.0  0.67457  0.26633  0.41234  1.0000
  S   S13       1.0  0.69012  0.19989  0.41380  1.0000
  S   S14       1.0  0.68750  0.22227  0.43303  1.0000
  F   F13       1.0  0.70564  0.19382  0.41502  1.0000
  F   F14       1.0  0.70172  0.22625  0.44092  1.0000
  O   O25       1.0  0.68966  0.21048  0.40265  1.0000
  O   O26       1.0  0.68269  0.18709  0.41077  1.0000
  O   O27       1.0  0.68836  0.23224  0.42171  1.0000
  O   O28       1.0  0.67647  0.22591  0.44279  1.0000
  N   N7        1.0  0.68791  0.20584  0.42891  1.0000
  S   S15       1.0  0.63402  0.12714  0.50642  1.0000
  S   S16       1.0  0.62368  0.14668  0.52711  1.0000
  F   F15       1.0  0.62001  0.12355  0.49807  1.0000
  F   F16       1.0  0.60753  0.14532  0.53211  1.0000
  O   O29       1.0  0.64211  0.11413  0.50747  1.0000
  O   O30       1.0  0.64126  0.13833  0.49895  1.0000
  O   O31       1.0  0.63006  0.15059  0.54080  1.0000
  O   O32       1.0  0.62350  0.15764  0.51674  1.0000
  N   N8        1.0  0.62863  0.13161  0.52127  1.0000
  S   S17       1.0  0.66228  0.13048  0.46718  1.0000
  S   S18       1.0  0.66816  0.10675  0.48386  1.0000
  F   F17       1.0  0.67760  0.13746  0.46577  1.0000
  F   F18       1.0  0.65355  0.09742  0.47978  1.0000
  O   O33       1.0  0.65376  0.14288  0.46797  1.0000
  O   O34       1.0  0.65949  0.12087  0.45543  1.0000
  O   O35       1.0  0.67953  0.10220  0.47472  1.0000
  O   O36       1.0  0.67172  0.10414  0.49845  1.0000
  N   N9        1.0  0.66382  0.12267  0.48196  1.0000
  S   S19       1.0  0.67338  0.15771  0.50042  1.0000
  S   S20       1.0  0.66111  0.17381  0.52385  1.0000
  F   F19       1.0  0.68694  0.16527  0.49398  1.0000
  F   F20       1.0  0.66899  0.18807  0.52805  1.0000
  O   O37       1.0  0.66171  0.16207  0.49138  1.0000
  O   O38       1.0  0.67581  0.14289  0.50099  1.0000
  O   O39       1.0  0.64909  0.17740  0.51520  1.0000
  O   O40       1.0  0.65702  0.16859  0.53793  1.0000
  N   N10       1.0  0.67264  0.16467  0.51580  1.0000
  S   S21       1.0  0.63975  0.16154  0.57605  1.0000
  S   S22       1.0  0.62140  0.16345  0.59942  1.0000
  F   F21       1.0  0.65165  0.16939  0.58491  1.0000
  F   F22       1.0  0.62808  0.15659  0.61280  1.0000
  O   O41       1.0  0.63336  0.17269  0.56812  1.0000
  O   O42       1.0  0.64706  0.15164  0.56684  1.0000
  O   O43       1.0  0.62515  0.17743  0.60138  1.0000
  O   O44       1.0  0.60571  0.16116  0.60116  1.0000
  N   N11       1.0  0.62831  0.15577  0.58670  1.0000
  S   S23       1.0  0.62827  0.24045  0.44978  1.0000
  S   S24       1.0  0.64753  0.23940  0.47402  1.0000
  F   F23       1.0  0.62309  0.22422  0.44557  1.0000
  F   F24       1.0  0.64851  0.25186  0.48513  1.0000
  O   O45       1.0  0.63986  0.24246  0.44015  1.0000
  O   O46       1.0  0.61597  0.24853  0.44720  1.0000
  O   O47       1.0  0.65028  0.22746  0.48333  1.0000
  O   O48       1.0  0.65911  0.24252  0.46522  1.0000
  N   N12       1.0  0.63210  0.23965  0.46669  1.0000
  S   S25       1.0  0.73056  0.22802  0.40488  1.0000
  S   S26       1.0  0.75089  0.23707  0.42444  1.0000
  F   F25       1.0  0.72943  0.21164  0.40524  1.0000
  F   F26       1.0  0.75301  0.25153  0.41720  1.0000
  O   O49       1.0  0.74140  0.23118  0.39430  1.0000
  O   O50       1.0  0.71608  0.23206  0.40181  1.0000
  O   O51       1.0  0.75231  0.23985  0.43945  1.0000
  O   O52       1.0  0.76132  0.22811  0.41852  1.0000
  N   N13       1.0  0.73502  0.23212  0.42100  1.0000
  S   S27       1.0  0.68566  0.10019  0.54181  1.0000
  S   S28       1.0  0.66412  0.12128  0.53631  1.0000
  F   F27       1.0  0.69955  0.10912  0.54370  1.0000
  F   F28       1.0  0.65149  0.11186  0.53741  1.0000
  O   O53       1.0  0.68599  0.09580  0.52690  1.0000
  O   O54       1.0  0.68655  0.08860  0.55157  1.0000
  O   O55       1.0  0.66027  0.13493  0.54187  1.0000
  O   O56       1.0  0.66877  0.12049  0.52222  1.0000
  N   N14       1.0  0.67473  0.11226  0.54635  1.0000
  S   S29       1.0  0.77216  0.20887  0.38204  1.0000
  S   S30       1.0  0.79451  0.21973  0.39972  1.0000
  F   F29       1.0  0.77788  0.19521  0.37424  1.0000
  F   F30       1.0  0.79028  0.23396  0.40634  1.0000
  O   O57       1.0  0.76234  0.21554  0.37172  1.0000
  O   O58       1.0  0.76560  0.20424  0.39492  1.0000
  O   O59       1.0  0.78971  0.20958  0.41077  1.0000
  O   O60       1.0  0.80942  0.22076  0.39889  1.0000
  N   N15       1.0  0.78563  0.21925  0.38562  1.0000
  S   S31       1.0  0.78375  0.20333  0.44765  1.0000
  S   S32       1.0  0.81335  0.20559  0.44233  1.0000
  F   F31       1.0  0.78172  0.19725  0.46277  1.0000
  F   F32       1.0  0.82009  0.19289  0.45033  1.0000
  O   O61       1.0  0.78136  0.19080  0.43866  1.0000
  O   O62       1.0  0.77213  0.21309  0.44613  1.0000
  O   O63       1.0  0.81265  0.20020  0.42809  1.0000
  O   O64       1.0  0.82277  0.21735  0.44562  1.0000
  N   N16       1.0  0.79887  0.20966  0.44944  1.0000
  S   S33       1.0  0.74971  0.15575  0.43712  1.0000
  S   S34       1.0  0.74546  0.18522  0.43314  1.0000
  F   F33       1.0  0.74706  0.15004  0.45235  1.0000
  F   F34       1.0  0.74272  0.19430  0.44721  1.0000
  O   O65       1.0  0.76178  0.14708  0.43323  1.0000
  O   O66       1.0  0.73668  0.15207  0.42917  1.0000
  O   O67       1.0  0.75406  0.19436  0.42444  1.0000
  O   O68       1.0  0.73210  0.18235  0.42654  1.0000
  N   N17       1.0  0.75397  0.17208  0.43870  1.0000
  S   S35       1.0  0.79741  0.13637  0.40175  1.0000
  S   S36       1.0  0.78976  0.16496  0.40543  1.0000
  F   F35       1.0  0.79122  0.13211  0.38687  1.0000
  F   F36       1.0  0.77756  0.16817  0.39431  1.0000
  O   O69       1.0  0.78695  0.13310  0.41226  1.0000
  O   O70       1.0  0.81088  0.12917  0.40336  1.0000
  O   O71       1.0  0.78246  0.16105  0.41818  1.0000
  O   O72       1.0  0.79767  0.17799  0.40674  1.0000
  N   N18       1.0  0.79941  0.15285  0.39888  1.0000
  S   S37       1.0  0.79619  0.16065  0.46166  1.0000
  S   S38       1.0  0.80137  0.13165  0.45606  1.0000
  F   F37       1.0  0.78563  0.16253  0.47459  1.0000
  F   F38       1.0  0.79157  0.12172  0.46611  1.0000
  O   O73       1.0  0.78717  0.16239  0.44967  1.0000
  O   O74       1.0  0.80673  0.17169  0.46310  1.0000
  O   O75       1.0  0.79356  0.13211  0.44297  1.0000
  O   O76       1.0  0.81429  0.12407  0.45565  1.0000
  N   N19       1.0  0.80293  0.14558  0.46497  1.0000
