data_image0
_chemical_formula_structural       Li18S2F2O4NS2F2O4NS2F2O4NS2F2O4NS2F2O4NS2F2O4NS2F2O4NS2F2O4NS2F2O4NS2F2O4NS2F2O4NS2F2O4NS2F2O4NS2F2O4NS2F2O4NS2F2O4N
_chemical_formula_sum              "Li18 S32 F32 O64 N16"
_cell_length_a       93.5399
_cell_length_b       93.5399
_cell_length_c       93.5399
_cell_angle_alpha    90
_cell_angle_beta     90
_cell_angle_gamma    90

_space_group_name_H-M_alt    "P 1"
_space_group_IT_number       1

loop_
  _space_group_symop_operation_xyz
  'x, y, z'

loop_
  _atom_site_type_symbol
  _atom_site_label
  _atom_site_symmetry_multiplicity
  _atom_site_fract_x
  _atom_site_fract_y
  _atom_site_fract_z
  _atom_site_occupancy
  Li  Li1       1.0  0.70873  0.20844  0.61275  1.0000
  Li  Li2       1.0  0.74553  0.24914  0.63512  1.0000
  Li  Li3       1.0  0.66055  0.24030  0.54922  1.0000
  Li  Li4       1.0  0.66619  0.19775  0.59450  1.0000
  Li  Li5       1.0  0.71977  0.28836  0.67489  1.0000
  Li  Li6       1.0  0.77339  0.30412  0.67537  1.0000
  Li  Li7       1.0  0.61843  0.28354  0.55141  1.0000
  Li  Li8       1.0  0.74799  0.34995  0.68349  1.0000
  Li  Li9       1.0  0.70978  0.34315  0.67078  1.0000
  Li  Li10      1.0  0.66300  0.26788  0.74149  1.0000
  Li  Li11      1.0  0.66914  0.31858  0.73217  1.0000
  Li  Li12      1.0  0.71041  0.31715  0.72144  1.0000
  Li  Li13      1.0  0.57120  0.25048  0.52992  1.0000
  Li  Li14      1.0  0.68207  0.35814  0.68427  1.0000
  Li  Li15      1.0  0.63498  0.35055  0.66529  1.0000
  Li  Li16      1.0  0.64313  0.34449  0.70666  1.0000
  Li  Li17      1.0  0.65892  0.29856  0.77996  1.0000
  Li  Li18      1.0  0.67925  0.26299  0.69928  1.0000
  S   S1        1.0  0.69916  0.22714  0.63818  1.0000
  S   S2        1.0  0.72863  0.22159  0.63411  1.0000
  F   F1        1.0  0.69368  0.22037  0.65249  1.0000
  F   F2        1.0  0.73262  0.20927  0.64488  1.0000
  O   O1        1.0  0.69674  0.21739  0.62653  1.0000
  O   O2        1.0  0.69151  0.24021  0.63743  1.0000
  O   O3        1.0  0.72488  0.21480  0.62093  1.0000
  O   O4        1.0  0.74091  0.23099  0.63268  1.0000
  N   N1        1.0  0.71571  0.22957  0.64142  1.0000
  S   S3        1.0  0.70154  0.22792  0.58938  1.0000
  S   S4        1.0  0.67403  0.22688  0.57620  1.0000
  F   F3        1.0  0.69716  0.23562  0.60340  1.0000
  F   F4        1.0  0.66521  0.23744  0.58496  1.0000
  O   O5        1.0  0.71496  0.23419  0.58587  1.0000
  O   O6        1.0  0.70358  0.21348  0.59250  1.0000
  O   O7        1.0  0.66859  0.22672  0.56178  1.0000
  O   O8        1.0  0.67154  0.21318  0.58278  1.0000
  N   N2        1.0  0.68983  0.23278  0.57734  1.0000
  S   S5        1.0  0.66704  0.18388  0.63395  1.0000
  S   S6        1.0  0.68914  0.18199  0.61316  1.0000
  F   F5        1.0  0.66478  0.20087  0.63241  1.0000
  F   F6        1.0  0.69235  0.16686  0.60816  1.0000
  O   O9        1.0  0.66473  0.18127  0.64852  1.0000
  O   O10       1.0  0.65705  0.17724  0.62491  1.0000
  O   O11       1.0  0.67826  0.18558  0.60299  1.0000
  O   O12       1.0  0.70183  0.19016  0.61206  1.0000
  N   N3        1.0  0.68306  0.18067  0.62891  1.0000
  S   S7        1.0  0.74410  0.25596  0.66679  1.0000
  S   S8        1.0  0.75064  0.27792  0.68649  1.0000
  F   F7        1.0  0.73936  0.24148  0.67522  1.0000
  F   F8        1.0  0.74948  0.27393  0.70261  1.0000
  O   O13       1.0  0.75029  0.25078  0.65380  1.0000
  O   O14       1.0  0.73053  0.26226  0.66443  1.0000
  O   O15       1.0  0.76205  0.28815  0.68596  1.0000
  O   O16       1.0  0.73756  0.28460  0.68251  1.0000
  N   N4        1.0  0.75471  0.26350  0.67758  1.0000
  S   S9        1.0  0.64820  0.27130  0.55760  1.0000
  S   S10       1.0  0.64723  0.29102  0.53549  1.0000
  F   F9        1.0  0.65754  0.27875  0.56993  1.0000
  F   F10       1.0  0.64715  0.28642  0.51953  1.0000
  O   O17       1.0  0.65163  0.25654  0.55793  1.0000
  O   O18       1.0  0.63356  0.27406  0.55995  1.0000
  O   O19       1.0  0.63229  0.29357  0.53832  1.0000
  O   O20       1.0  0.65507  0.30345  0.53495  1.0000
  N   N5        1.0  0.65514  0.27912  0.54394  1.0000
  S   S11       1.0  0.75124  0.32500  0.65933  1.0000
  S   S12       1.0  0.72319  0.31425  0.65597  1.0000
  F   F11       1.0  0.75778  0.33111  0.64580  1.0000
  F   F12       1.0  0.71670  0.31774  0.64090  1.0000
  O   O21       1.0  0.76295  0.31916  0.66673  1.0000
  O   O22       1.0  0.74557  0.33777  0.66599  1.0000
  O   O23       1.0  0.71735  0.30047  0.65887  1.0000
  O   O24       1.0  0.71837  0.32610  0.66491  1.0000
  N   N6        1.0  0.74035  0.31375  0.65374  1.0000
  S   S13       1.0  0.67180  0.29001  0.71368  1.0000
  S   S14       1.0  0.69832  0.29335  0.69982  1.0000
  F   F13       1.0  0.65849  0.29400  0.70358  1.0000
  F   F14       1.0  0.69247  0.30580  0.69158  1.0000
  O   O25       1.0  0.67609  0.30326  0.72009  1.0000
  O   O26       1.0  0.66763  0.27885  0.72330  1.0000
  O   O27       1.0  0.70580  0.29818  0.71218  1.0000
  O   O28       1.0  0.70687  0.28664  0.68930  1.0000
  N   N7        1.0  0.68409  0.28435  0.70374  1.0000
  S   S15       1.0  0.76736  0.32812  0.69987  1.0000
  S   S16       1.0  0.73723  0.32499  0.70334  1.0000
  F   F15       1.0  0.77723  0.33126  0.71405  1.0000
  F   F16       1.0  0.73250  0.31459  0.69119  1.0000
  O   O29       1.0  0.76551  0.34258  0.69390  1.0000
  O   O30       1.0  0.77670  0.31870  0.69202  1.0000
  O   O31       1.0  0.72770  0.32295  0.71523  1.0000
  O   O32       1.0  0.73654  0.33911  0.69645  1.0000
  N   N8        1.0  0.75346  0.32033  0.70489  1.0000
  S   S17       1.0  0.59284  0.26565  0.55043  1.0000
  S   S18       1.0  0.59173  0.29170  0.56668  1.0000
  F   F17       1.0  0.59830  0.25205  0.55947  1.0000
  F   F18       1.0  0.58733  0.30275  0.55588  1.0000
  O   O33       1.0  0.60479  0.27063  0.54287  1.0000
  O   O34       1.0  0.58256  0.25919  0.54195  1.0000
  O   O35       1.0  0.58555  0.29623  0.57980  1.0000
  O   O36       1.0  0.60733  0.29149  0.56667  1.0000
  N   N9        1.0  0.58565  0.27708  0.56153  1.0000
  S   S19       1.0  0.72708  0.37160  0.67777  1.0000
  S   S20       1.0  0.70061  0.38183  0.68978  1.0000
  F   F19       1.0  0.73104  0.38276  0.66664  1.0000
  F   F20       1.0  0.69605  0.39731  0.68504  1.0000
  O   O37       1.0  0.72073  0.36021  0.66993  1.0000
  O   O38       1.0  0.74051  0.36784  0.68441  1.0000
  O   O39       1.0  0.69338  0.37288  0.67988  1.0000
  O   O40       1.0  0.69541  0.38092  0.70442  1.0000
  N   N10       1.0  0.71760  0.38067  0.68828  1.0000
  S   S21       1.0  0.65804  0.33535  0.67594  1.0000
  S   S22       1.0  0.68058  0.33909  0.65702  1.0000
  F   F21       1.0  0.66118  0.31864  0.67819  1.0000
  F   F22       1.0  0.67541  0.35098  0.64692  1.0000
  O   O41       1.0  0.64803  0.33594  0.66449  1.0000
  O   O42       1.0  0.65166  0.33958  0.68966  1.0000
  O   O43       1.0  0.69529  0.34254  0.65819  1.0000
  O   O44       1.0  0.67710  0.32554  0.65046  1.0000
  N   N11       1.0  0.67357  0.34207  0.67227  1.0000
  S   S23       1.0  0.69870  0.34564  0.70416  1.0000
  S   S24       1.0  0.67343  0.34967  0.71924  1.0000
  F   F23       1.0  0.70967  0.35510  0.71111  1.0000
  F   F24       1.0  0.67852  0.35890  0.73167  1.0000
  O   O45       1.0  0.70095  0.34634  0.68911  1.0000
  O   O46       1.0  0.70188  0.33115  0.70868  1.0000
  O   O47       1.0  0.65910  0.35484  0.71614  1.0000
  O   O48       1.0  0.67384  0.33529  0.72415  1.0000
  N   N12       1.0  0.68395  0.35285  0.70705  1.0000
  S   S25       1.0  0.64799  0.29891  0.74862  1.0000
  S   S26       1.0  0.63598  0.31733  0.72860  1.0000
  F   F25       1.0  0.63143  0.29647  0.75282  1.0000
  F   F26       1.0  0.62431  0.30627  0.72126  1.0000
  O   O49       1.0  0.65401  0.30587  0.76070  1.0000
  O   O50       1.0  0.65304  0.28501  0.74711  1.0000
  O   O51       1.0  0.62789  0.32426  0.73969  1.0000
  O   O52       1.0  0.64124  0.32621  0.71746  1.0000
  N   N13       1.0  0.64868  0.30787  0.73419  1.0000
  S   S27       1.0  0.65504  0.23607  0.73228  1.0000
  S   S28       1.0  0.64796  0.24748  0.70485  1.0000
  F   F27       1.0  0.66917  0.22761  0.73091  1.0000
  F   F28       1.0  0.63888  0.26087  0.71037  1.0000
  O   O53       1.0  0.64764  0.22780  0.74303  1.0000
  O   O54       1.0  0.65950  0.25019  0.73659  1.0000
  O   O55       1.0  0.66183  0.25154  0.70258  1.0000
  O   O56       1.0  0.63938  0.24241  0.69282  1.0000
  N   N14       1.0  0.64695  0.23628  0.71709  1.0000
  S   S29       1.0  0.68627  0.28385  0.76411  1.0000
  S   S30       1.0  0.69378  0.30981  0.75092  1.0000
  F   F29       1.0  0.69864  0.27854  0.77343  1.0000
  F   F30       1.0  0.70101  0.31528  0.76468  1.0000
  O   O57       1.0  0.68109  0.27062  0.75880  1.0000
  O   O58       1.0  0.67686  0.29039  0.77420  1.0000
  O   O59       1.0  0.70293  0.31437  0.73958  1.0000
  O   O60       1.0  0.68007  0.31692  0.75025  1.0000
  N   N15       1.0  0.69349  0.29358  0.75320  1.0000
  S   S31       1.0  0.65200  0.37534  0.68342  1.0000
  S   S32       1.0  0.63159  0.37366  0.70390  1.0000
  F   F31       1.0  0.65435  0.38903  0.67438  1.0000
  F   F32       1.0  0.61855  0.37717  0.69413  1.0000
  O   O61       1.0  0.64324  0.36636  0.67429  1.0000
  O   O62       1.0  0.66619  0.37045  0.68605  1.0000
  O   O63       1.0  0.63064  0.35802  0.70380  1.0000
  O   O64       1.0  0.62771  0.38019  0.71737  1.0000
  N   N16       1.0  0.64419  0.38091  0.69699  1.0000
