data_image0
_chemical_formula_structural       LiS2F2O4N
_chemical_formula_sum              "Li1 S2 F2 O4 N1"
_cell_length_a       93.5399
_cell_length_b       93.5399
_cell_length_c       93.5399
_cell_angle_alpha    90
_cell_angle_beta     90
_cell_angle_gamma    90

_space_group_name_H-M_alt    "P 1"
_space_group_IT_number       1

loop_
  _space_group_symop_operation_xyz
  'x, y, z'

loop_
  _atom_site_type_symbol
  _atom_site_label
  _atom_site_symmetry_multiplicity
  _atom_site_fract_x
  _atom_site_fract_y
  _atom_site_fract_z
  _atom_site_occupancy
  Li  Li1       1.0  0.71701  0.17607  0.69724  1.0000
  S   S1        1.0  0.71278  0.14394  0.69974  1.0000
  S   S2        1.0  0.73359  0.15650  0.71825  1.0000
  F   F1        1.0  0.71874  0.13811  0.68490  1.0000
  F   F2        1.0  0.74923  0.15615  0.71295  1.0000
  O   O1        1.0  0.70773  0.15834  0.69646  1.0000
  O   O2        1.0  0.70191  0.13441  0.70371  1.0000
  O   O3        1.0  0.72792  0.17003  0.71339  1.0000
  O   O4        1.0  0.73465  0.15637  0.73378  1.0000
  N   N1        1.0  0.72589  0.14365  0.71078  1.0000
