data_image0
_chemical_formula_structural       Li4S2F2O4NS2F2O4NS2F2O4NS2F2O4N
_chemical_formula_sum              "Li4 S8 F8 O16 N4"
_cell_length_a       93.5399
_cell_length_b       93.5399
_cell_length_c       93.5399
_cell_angle_alpha    90
_cell_angle_beta     90
_cell_angle_gamma    90

_space_group_name_H-M_alt    "P 1"
_space_group_IT_number       1

loop_
  _space_group_symop_operation_xyz
  'x, y, z'

loop_
  _atom_site_type_symbol
  _atom_site_label
  _atom_site_symmetry_multiplicity
  _atom_site_fract_x
  _atom_site_fract_y
  _atom_site_fract_z
  _atom_site_occupancy
  Li  Li1       1.0  0.86868  0.30780  0.11303  1.0000
  Li  Li2       1.0  0.89039  0.26697  0.05380  1.0000
  Li  Li3       1.0  0.85188  0.28123  0.07831  1.0000
  Li  Li4       1.0  0.82337  0.24551  0.09035  1.0000
  S   S1        1.0  0.88296  0.29075  0.07663  1.0000
  S   S2        1.0  0.88785  0.31890  0.08647  1.0000
  F   F1        1.0  0.89020  0.28100  0.08871  1.0000
  F   F2        1.0  0.87679  0.32799  0.07653  1.0000
  O   O1        1.0  0.88668  0.28368  0.06350  1.0000
  O   O2        1.0  0.86764  0.29172  0.07982  1.0000
  O   O3        1.0  0.87915  0.31577  0.09832  1.0000
  O   O4        1.0  0.90029  0.32720  0.08758  1.0000
  N   N1        1.0  0.89219  0.30510  0.07859  1.0000
  S   S3        1.0  0.85223  0.27922  0.11082  1.0000
  S   S4        1.0  0.83157  0.25981  0.12186  1.0000
  F   F3        1.0  0.86249  0.26661  0.10717  1.0000
  F   F4        1.0  0.84138  0.24857  0.12970  1.0000
  O   O5        1.0  0.86070  0.29099  0.11588  1.0000
  O   O6        1.0  0.84423  0.28204  0.09769  1.0000
  O   O7        1.0  0.81926  0.26229  0.13060  1.0000
  O   O8        1.0  0.82889  0.25361  0.10807  1.0000
  N   N2        1.0  0.84212  0.27264  0.12248  1.0000
  S   S5        1.0  0.86469  0.25080  0.06800  1.0000
  S   S6        1.0  0.85512  0.23026  0.08805  1.0000
  F   F5        1.0  0.85525  0.24732  0.05450  1.0000
  F   F6        1.0  0.85991  0.23754  0.10202  1.0000
  O   O9        1.0  0.87817  0.25284  0.06251  1.0000
  O   O10       1.0  0.85803  0.26308  0.07458  1.0000
  O   O11       1.0  0.84100  0.23552  0.08541  1.0000
  O   O12       1.0  0.85577  0.21539  0.09140  1.0000
  N   N3        1.0  0.86558  0.23665  0.07707  1.0000
  S   S7        1.0  0.82106  0.27315  0.07040  1.0000
  S   S8        1.0  0.79662  0.27258  0.08769  1.0000
  F   F7        1.0  0.81537  0.27139  0.05483  1.0000
  F   F8        1.0  0.79898  0.27849  0.10253  1.0000
  O   O13       1.0  0.82420  0.25836  0.07492  1.0000
  O   O14       1.0  0.83353  0.28215  0.06911  1.0000
  O   O15       1.0  0.78261  0.27646  0.08410  1.0000
  O   O16       1.0  0.79792  0.25808  0.08919  1.0000
  N   N4        1.0  0.80874  0.28045  0.07908  1.0000
