data_image0
_chemical_formula_structural       Li19S2F2O4NS2F2O4NS2F2O4NS2F2O4NS2F2O4NS2F2O4NS2F2O4NS2F2O4NS2F2O4NS2F2O4NS2F2O4NS2F2O4NS2F2O4NS2F2O4NS2F2O4NS2F2O4NS2F2O4NS2F2O4N
_chemical_formula_sum              "Li19 S36 F36 O72 N18"
_cell_length_a       93.5399
_cell_length_b       93.5399
_cell_length_c       93.5399
_cell_angle_alpha    90
_cell_angle_beta     90
_cell_angle_gamma    90

_space_group_name_H-M_alt    "P 1"
_space_group_IT_number       1

loop_
  _space_group_symop_operation_xyz
  'x, y, z'

loop_
  _atom_site_type_symbol
  _atom_site_label
  _atom_site_symmetry_multiplicity
  _atom_site_fract_x
  _atom_site_fract_y
  _atom_site_fract_z
  _atom_site_occupancy
  Li  Li1       1.0  0.40968  0.77492  0.49522  1.0000
  Li  Li2       1.0  0.42884  0.81288  0.45855  1.0000
  Li  Li3       1.0  0.37284  0.77633  0.49886  1.0000
  Li  Li4       1.0  0.40857  0.72682  0.50131  1.0000
  Li  Li5       1.0  0.33403  0.74956  0.52387  1.0000
  Li  Li6       1.0  0.43479  0.80305  0.52619  1.0000
  Li  Li7       1.0  0.43622  0.85645  0.38724  1.0000
  Li  Li8       1.0  0.39723  0.82115  0.41666  1.0000
  Li  Li9       1.0  0.37068  0.75134  0.56036  1.0000
  Li  Li10      1.0  0.37108  0.70313  0.50146  1.0000
  Li  Li11      1.0  0.42486  0.67947  0.47803  1.0000
  Li  Li12      1.0  0.46645  0.87365  0.48195  1.0000
  Li  Li13      1.0  0.49562  0.86387  0.40619  1.0000
  Li  Li14      1.0  0.49636  0.90967  0.42295  1.0000
  Li  Li15      1.0  0.43390  0.90714  0.40823  1.0000
  Li  Li16      1.0  0.48265  0.93583  0.46306  1.0000
  Li  Li17      1.0  0.53174  0.90457  0.41545  1.0000
  Li  Li18      1.0  0.47952  0.93866  0.38660  1.0000
  Li  Li19      1.0  0.56473  0.92690  0.38153  1.0000
  S   S1        1.0  0.40318  0.78721  0.46368  1.0000
  S   S2        1.0  0.37265  0.78357  0.46468  1.0000
  F   F1        1.0  0.41122  0.77604  0.45356  1.0000
  F   F2        1.0  0.37147  0.76845  0.45789  1.0000
  O   O1        1.0  0.40411  0.78083  0.47707  1.0000
  O   O2        1.0  0.41156  0.79958  0.46127  1.0000
  O   O3        1.0  0.37178  0.78059  0.47956  1.0000
  O   O4        1.0  0.36056  0.79118  0.45963  1.0000
  N   N1        1.0  0.38709  0.78854  0.45871  1.0000
  S   S3        1.0  0.38692  0.75267  0.49620  1.0000
  S   S4        1.0  0.35796  0.74362  0.50061  1.0000
  F   F3        1.0  0.38988  0.75527  0.47989  1.0000
  F   F4        1.0  0.34604  0.74894  0.49024  1.0000
  O   O5        1.0  0.39184  0.73845  0.49923  1.0000
  O   O6        1.0  0.39488  0.76420  0.50231  1.0000
  O   O7        1.0  0.36156  0.72896  0.49704  1.0000
  O   O8        1.0  0.35230  0.74365  0.51461  1.0000
  N   N2        1.0  0.37040  0.75479  0.49854  1.0000
  S   S5        1.0  0.39328  0.79807  0.51174  1.0000
  S   S6        1.0  0.40376  0.81532  0.53247  1.0000
  F   F5        1.0  0.39117  0.81139  0.50306  1.0000
  F   F6        1.0  0.39663  0.82856  0.52631  1.0000
  O   O9        1.0  0.38077  0.78998  0.50917  1.0000
  O   O10       1.0  0.40619  0.79235  0.50584  1.0000
  O   O11       1.0  0.40392  0.81695  0.54747  1.0000
  O   O12       1.0  0.41771  0.81388  0.52658  1.0000
  N   N3        1.0  0.39307  0.80288  0.52833  1.0000
  S   S7        1.0  0.42345  0.83184  0.43422  1.0000
  S   S8        1.0  0.42598  0.82887  0.40450  1.0000
  F   F7        1.0  0.42254  0.84865  0.43476  1.0000
  F   F8        1.0  0.43094  0.81475  0.39698  1.0000
  O   O13       1.0  0.43187  0.82842  0.44657  1.0000
  O   O14       1.0  0.40892  0.82604  0.43397  1.0000
  O   O15       1.0  0.41073  0.82810  0.40468  1.0000
  O   O16       1.0  0.43138  0.83986  0.39506  1.0000
  N   N4        1.0  0.43217  0.82954  0.41972  1.0000
  S   S9        1.0  0.34404  0.76825  0.54729  1.0000
  S   S10       1.0  0.34271  0.77938  0.51960  1.0000
  F   F9        1.0  0.33456  0.77951  0.55576  1.0000
  F   F10       1.0  0.33490  0.79350  0.52112  1.0000
  O   O17       1.0  0.35463  0.76370  0.55743  1.0000
  O   O18       1.0  0.33387  0.75683  0.54378  1.0000
  O   O19       1.0  0.35315  0.78193  0.50858  1.0000
  O   O20       1.0  0.33202  0.76956  0.51554  1.0000
  N   N5        1.0  0.34987  0.77693  0.53475  1.0000
  S   S11       1.0  0.39991  0.70032  0.51946  1.0000
  S   S12       1.0  0.41923  0.67858  0.51056  1.0000
  F   F11       1.0  0.40021  0.70115  0.53568  1.0000
  F   F12       1.0  0.43036  0.68383  0.52171  1.0000
  O   O21       1.0  0.38564  0.70439  0.51611  1.0000
  O   O22       1.0  0.40968  0.71084  0.51510  1.0000
  O   O23       1.0  0.42075  0.66385  0.51214  1.0000
  O   O24       1.0  0.42287  0.68448  0.49750  1.0000
  N   N6        1.0  0.40452  0.68472  0.51509  1.0000
  S   S13       1.0  0.37911  0.70728  0.47067  1.0000
  S   S14       1.0  0.40855  0.70943  0.47140  1.0000
  F   F13       1.0  0.37235  0.72184  0.46634  1.0000
  F   F14       1.0  0.41550  0.72238  0.46192  1.0000
  O   O25       1.0  0.38028  0.70715  0.48632  1.0000
  O   O26       1.0  0.36863  0.69817  0.46484  1.0000
  O   O27       1.0  0.40735  0.71523  0.48576  1.0000
  O   O28       1.0  0.41904  0.69857  0.46943  1.0000
  N   N7        1.0  0.39376  0.70564  0.46404  1.0000
  S   S15       1.0  0.43531  0.77041  0.51659  1.0000
  S   S16       1.0  0.43006  0.75119  0.49323  1.0000
  F   F15       1.0  0.42363  0.76418  0.52835  1.0000
  F   F16       1.0  0.44569  0.75206  0.48753  1.0000
  O   O29       1.0  0.43463  0.78561  0.51856  1.0000
  O   O30       1.0  0.44832  0.76373  0.51968  1.0000
  O   O31       1.0  0.42803  0.73788  0.50083  1.0000
  O   O32       1.0  0.42039  0.75282  0.48154  1.0000
  N   N8        1.0  0.42900  0.76580  0.50163  1.0000
  S   S17       1.0  0.33811  0.69983  0.50702  1.0000
  S   S18       1.0  0.32139  0.71850  0.52341  1.0000
  F   F17       1.0  0.33225  0.70735  0.49265  1.0000
  F   F18       1.0  0.32010  0.71289  0.53886  1.0000
  O   O33       1.0  0.32999  0.68663  0.50993  1.0000
  O   O34       1.0  0.35336  0.69725  0.50502  1.0000
  O   O35       1.0  0.32268  0.73384  0.52434  1.0000
  O   O36       1.0  0.30925  0.71379  0.51551  1.0000
  N   N9        1.0  0.33597  0.71127  0.51911  1.0000
  S   S19       1.0  0.46227  0.82139  0.51243  1.0000
  S   S20       1.0  0.47353  0.84377  0.49505  1.0000
  F   F19       1.0  0.46819  0.80942  0.50326  1.0000
  F   F20       1.0  0.47449  0.83565  0.47985  1.0000
  O   O37       1.0  0.44876  0.81582  0.51769  1.0000
  O   O38       1.0  0.47206  0.82288  0.52371  1.0000
  O   O39       1.0  0.46864  0.85753  0.49229  1.0000
  O   O40       1.0  0.48746  0.84166  0.50110  1.0000
  N   N10       1.0  0.46107  0.83488  0.50267  1.0000
  S   S21       1.0  0.47480  0.88791  0.40999  1.0000
  S   S22       1.0  0.44508  0.87944  0.41355  1.0000
  F   F21       1.0  0.47621  0.89767  0.39590  1.0000
  F   F22       1.0  0.44329  0.87377  0.42960  1.0000
  O   O41       1.0  0.47945  0.87409  0.40513  1.0000
  O   O42       1.0  0.48430  0.89436  0.42060  1.0000
  O   O43       1.0  0.43307  0.88783  0.41037  1.0000
  O   O44       1.0  0.44656  0.86612  0.40538  1.0000
  N   N11       1.0  0.45889  0.89009  0.41501  1.0000
  S   S23       1.0  0.41536  0.65662  0.45581  1.0000
  S   S24       1.0  0.43967  0.64823  0.47111  1.0000
  F   F23       1.0  0.40205  0.65216  0.46480  1.0000
  F   F24       1.0  0.43428  0.63997  0.48488  1.0000
  O   O45       1.0  0.41192  0.65706  0.44063  1.0000
  O   O46       1.0  0.41891  0.67058  0.46085  1.0000
  O   O47       1.0  0.45214  0.64019  0.46759  1.0000
  O   O48       1.0  0.44098  0.66291  0.47676  1.0000
  N   N12       1.0  0.42694  0.64517  0.46020  1.0000
  S   S25       1.0  0.47288  0.92710  0.49328  1.0000
  S   S26       1.0  0.45578  0.90314  0.49918  1.0000
  F   F25       1.0  0.48558  0.91840  0.49835  1.0000
  F   F26       1.0  0.43922  0.90451  0.49758  1.0000
  O   O49       1.0  0.46905  0.93604  0.50539  1.0000
  O   O50       1.0  0.47868  0.93482  0.48125  1.0000
  O   O51       1.0  0.46068  0.88975  0.49332  1.0000
  O   O52       1.0  0.45824  0.90522  0.51400  1.0000
  N   N13       1.0  0.46213  0.91482  0.48930  1.0000
  S   S27       1.0  0.51688  0.87567  0.42676  1.0000
  S   S28       1.0  0.54706  0.87777  0.43090  1.0000
  F   F27       1.0  0.50718  0.88022  0.43936  1.0000
  F   F28       1.0  0.55258  0.86829  0.41852  1.0000
  O   O53       1.0  0.51024  0.86379  0.42005  1.0000
  O   O54       1.0  0.51775  0.88692  0.41687  1.0000
  O   O55       1.0  0.54611  0.89233  0.42540  1.0000
  O   O56       1.0  0.55645  0.87475  0.44181  1.0000
  N   N14       1.0  0.53148  0.87133  0.43326  1.0000
  S   S29       1.0  0.53114  0.91736  0.38436  1.0000
  S   S30       1.0  0.50871  0.92857  0.39974  1.0000
  F   F29       1.0  0.52619  0.90665  0.37269  1.0000
  F   F30       1.0  0.51545  0.93976  0.40964  1.0000
  O   O57       1.0  0.53405  0.90811  0.39620  1.0000
  O   O58       1.0  0.54304  0.92424  0.37893  1.0000
  O   O59       1.0  0.49468  0.93433  0.39725  1.0000
  O   O60       1.0  0.50854  0.91536  0.40796  1.0000
  N   N15       1.0  0.51817  0.92713  0.38578  1.0000
  S   S31       1.0  0.47588  0.93597  0.43048  1.0000
  S   S32       1.0  0.45389  0.93523  0.40946  1.0000
  F   F31       1.0  0.48628  0.94899  0.42809  1.0000
  F   F32       1.0  0.44108  0.94654  0.40471  1.0000
  O   O61       1.0  0.48211  0.92291  0.42514  1.0000
  O   O62       1.0  0.47416  0.93537  0.44538  1.0000
  O   O63       1.0  0.46220  0.93555  0.39683  1.0000
  O   O64       1.0  0.44613  0.92248  0.41070  1.0000
  N   N16       1.0  0.46114  0.94142  0.42370  1.0000
  S   S33       1.0  0.53657  0.93062  0.43817  1.0000
  S   S34       1.0  0.51133  0.91769  0.45164  1.0000
  F   F33       1.0  0.54981  0.92709  0.44733  1.0000
  F   F34       1.0  0.51955  0.90793  0.46296  1.0000
  O   O65       1.0  0.53978  0.94501  0.43375  1.0000
  O   O66       1.0  0.53584  0.92154  0.42613  1.0000
  O   O67       1.0  0.49930  0.92275  0.46007  1.0000
  O   O68       1.0  0.50800  0.90850  0.44018  1.0000
  N   N17       1.0  0.52340  0.93030  0.44880  1.0000
  S   S35       1.0  0.58731  0.94064  0.36073  1.0000
  S   S36       1.0  0.56511  0.95063  0.34256  1.0000
  F   F35       1.0  0.59481  0.95121  0.37097  1.0000
  F   F36       1.0  0.55481  0.95075  0.35563  1.0000
  O   O69       1.0  0.59777  0.93130  0.35498  1.0000
  O   O70       1.0  0.57677  0.93397  0.37019  1.0000
  O   O71       1.0  0.56131  0.96332  0.33497  1.0000
  O   O72       1.0  0.56166  0.93803  0.33484  1.0000
  N   N18       1.0  0.58037  0.95145  0.34915  1.0000
