data_image0
_chemical_formula_structural       S2F2O4N
_chemical_formula_sum              "S2 F2 O4 N1"
_cell_length_a       93.5399
_cell_length_b       93.5399
_cell_length_c       93.5399
_cell_angle_alpha    90
_cell_angle_beta     90
_cell_angle_gamma    90

_space_group_name_H-M_alt    "P 1"
_space_group_IT_number       1

loop_
  _space_group_symop_operation_xyz
  'x, y, z'

loop_
  _atom_site_type_symbol
  _atom_site_label
  _atom_site_symmetry_multiplicity
  _atom_site_fract_x
  _atom_site_fract_y
  _atom_site_fract_z
  _atom_site_occupancy
  S   S1        1.0  0.19454  0.23255  0.51027  1.0000
  S   S2        1.0  0.20901  0.20869  0.51831  1.0000
  F   F1        1.0  0.18656  0.22500  0.49814  1.0000
  F   F2        1.0  0.20999  0.19868  0.50543  1.0000
  O   O1        1.0  0.19729  0.24622  0.50431  1.0000
  O   O2        1.0  0.18514  0.23183  0.52215  1.0000
  O   O3        1.0  0.22253  0.20666  0.52518  1.0000
  O   O4        1.0  0.19698  0.20391  0.52598  1.0000
  N   N1        1.0  0.20842  0.22346  0.51204  1.0000
