data_image0
_chemical_formula_structural       Li3S2F2O4NS2F2O4NS2F2O4N
_chemical_formula_sum              "Li3 S6 F6 O12 N3"
_cell_length_a       93.5399
_cell_length_b       93.5399
_cell_length_c       93.5399
_cell_angle_alpha    90
_cell_angle_beta     90
_cell_angle_gamma    90

_space_group_name_H-M_alt    "P 1"
_space_group_IT_number       1

loop_
  _space_group_symop_operation_xyz
  'x, y, z'

loop_
  _atom_site_type_symbol
  _atom_site_label
  _atom_site_symmetry_multiplicity
  _atom_site_fract_x
  _atom_site_fract_y
  _atom_site_fract_z
  _atom_site_occupancy
  Li  Li1       1.0  0.48132  0.42270  0.15757  1.0000
  Li  Li2       1.0  0.52216  0.38029  0.14762  1.0000
  Li  Li3       1.0  0.46534  0.48549  0.15260  1.0000
  S   S1        1.0  0.49779  0.36809  0.16409  1.0000
  S   S2        1.0  0.50460  0.39805  0.16841  1.0000
  F   F1        1.0  0.48392  0.36537  0.15585  1.0000
  F   F2        1.0  0.50949  0.40092  0.18403  1.0000
  O   O1        1.0  0.49800  0.35760  0.17451  1.0000
  O   O2        1.0  0.50918  0.36835  0.15346  1.0000
  O   O3        1.0  0.51714  0.39563  0.16065  1.0000
  O   O4        1.0  0.49792  0.41087  0.16366  1.0000
  N   N1        1.0  0.49534  0.38424  0.16968  1.0000
  S   S3        1.0  0.49843  0.47768  0.14927  1.0000
  S   S4        1.0  0.47882  0.45793  0.16161  1.0000
  F   F3        1.0  0.50465  0.47003  0.13606  1.0000
  F   F4        1.0  0.47596  0.46026  0.17768  1.0000
  O   O5        1.0  0.50899  0.48639  0.15553  1.0000
  O   O6        1.0  0.48631  0.48548  0.14458  1.0000
  O   O7        1.0  0.46762  0.46522  0.15462  1.0000
  O   O8        1.0  0.47972  0.44275  0.16010  1.0000
  N   N2        1.0  0.49402  0.46459  0.15891  1.0000
  S   S5        1.0  0.46500  0.51050  0.17574  1.0000
  S   S6        1.0  0.44533  0.51169  0.15299  1.0000
  F   F5        1.0  0.45821  0.50554  0.18865  1.0000
  F   F6        1.0  0.42872  0.51043  0.15581  1.0000
  O   O9        1.0  0.47502  0.52062  0.18060  1.0000
  O   O10       1.0  0.47106  0.49737  0.17039  1.0000
  O   O11       1.0  0.44709  0.52137  0.14120  1.0000
  O   O12       1.0  0.44979  0.49717  0.15024  1.0000
  N   N3        1.0  0.45189  0.51682  0.16650  1.0000
