data_image0
_chemical_formula_structural       S2F2O4N
_chemical_formula_sum              "S2 F2 O4 N1"
_cell_length_a       93.5399
_cell_length_b       93.5399
_cell_length_c       93.5399
_cell_angle_alpha    90
_cell_angle_beta     90
_cell_angle_gamma    90

_space_group_name_H-M_alt    "P 1"
_space_group_IT_number       1

loop_
  _space_group_symop_operation_xyz
  'x, y, z'

loop_
  _atom_site_type_symbol
  _atom_site_label
  _atom_site_symmetry_multiplicity
  _atom_site_fract_x
  _atom_site_fract_y
  _atom_site_fract_z
  _atom_site_occupancy
  S   S1        1.0  0.24961  0.47548  0.10868  1.0000
  S   S2        1.0  0.24934  0.46112  0.08223  1.0000
  F   F1        1.0  0.23540  0.48303  0.10538  1.0000
  F   F2        1.0  0.25651  0.44609  0.08340  1.0000
  O   O1        1.0  0.25874  0.48656  0.11410  1.0000
  O   O2        1.0  0.24618  0.46458  0.11936  1.0000
  O   O3        1.0  0.23445  0.45774  0.08362  1.0000
  O   O4        1.0  0.25246  0.46654  0.06825  1.0000
  N   N1        1.0  0.25614  0.47021  0.09507  1.0000
