data_image0
_chemical_formula_structural       Li48S2F2O4NS2F2O4NS2F2O4NS2F2O4NS2F2O4NS2F2O4NS2F2O4NS2F2O4NS2F2O4NS2F2O4NS2F2O4NS2F2O4NS2F2O4NS2F2O4NS2F2O4NS2F2O4NS2F2O4NS2F2O4NS2F2O4NS2F2O4NS2F2O4NS2F2O4NS2F2O4NS2F2O4NS2F2O4NS2F2O4NS2F2O4NS2F2O4NS2F2O4NS2F2O4NS2F2O4NS2F2O4NS2F2O4NS2F2O4NS2F2O4NS2F2O4NS2F2O4NS2F2O4NS2F2O4NS2F2O4NS2F2O4NS2F2O4NS2F2O4NS2F2O4N
_chemical_formula_sum              "Li48 S88 F88 O176 N44"
_cell_length_a       93.5399
_cell_length_b       93.5399
_cell_length_c       93.5399
_cell_angle_alpha    90
_cell_angle_beta     90
_cell_angle_gamma    90

_space_group_name_H-M_alt    "P 1"
_space_group_IT_number       1

loop_
  _space_group_symop_operation_xyz
  'x, y, z'

loop_
  _atom_site_type_symbol
  _atom_site_label
  _atom_site_symmetry_multiplicity
  _atom_site_fract_x
  _atom_site_fract_y
  _atom_site_fract_z
  _atom_site_occupancy
  Li  Li1       1.0  0.01318  0.45688  0.77031  1.0000
  Li  Li2       1.0  0.98677  0.47537  0.74005  1.0000
  Li  Li3       1.0  0.99179  0.50177  0.79772  1.0000
  Li  Li4       1.0  0.00145  0.41934  0.78546  1.0000
  Li  Li5       1.0  0.97012  0.42438  0.81821  1.0000
  Li  Li6       1.0  0.94209  0.45059  0.73498  1.0000
  Li  Li7       1.0  0.01655  0.37256  0.78997  1.0000
  Li  Li8       1.0  0.05946  0.39684  0.78900  1.0000
  Li  Li9       1.0  0.04250  0.41063  0.75819  1.0000
  Li  Li10      1.0  0.96825  0.53899  0.81504  1.0000
  Li  Li11      1.0  0.98578  0.47361  0.82341  1.0000
  Li  Li12      1.0  0.93857  0.45703  0.82175  1.0000
  Li  Li13      1.0  0.96485  0.37444  0.75526  1.0000
  Li  Li14      1.0  0.90684  0.42335  0.76556  1.0000
  Li  Li15      1.0  0.90380  0.45450  0.80137  1.0000
  Li  Li16      1.0  0.06324  0.36959  0.73210  1.0000
  Li  Li17      1.0  0.04013  0.40566  0.71882  1.0000
  Li  Li18      1.0  0.09201  0.37168  0.76979  1.0000
  Li  Li19      1.0  0.13817  0.38209  0.79051  1.0000
  Li  Li20      1.0  0.91180  0.30818  0.77261  1.0000
  Li  Li21      1.0  0.92173  0.31986  0.73267  1.0000
  Li  Li22      1.0  0.90711  0.36320  0.77146  1.0000
  Li  Li23      1.0  0.85943  0.39784  0.76122  1.0000
  Li  Li24      1.0  0.12799  0.34766  0.74502  1.0000
  Li  Li25      1.0  0.11110  0.35035  0.70058  1.0000
  Li  Li26      1.0  0.07369  0.33822  0.77426  1.0000
  Li  Li27      1.0  0.85284  0.32143  0.72702  1.0000
  Li  Li28      1.0  0.89024  0.31188  0.70281  1.0000
  Li  Li29      1.0  0.91538  0.26498  0.68643  1.0000
  Li  Li30      1.0  0.13581  0.33290  0.67729  1.0000
  Li  Li31      1.0  0.10567  0.28931  0.66099  1.0000
  Li  Li32      1.0  0.12391  0.33509  0.63057  1.0000
  Li  Li33      1.0  0.13083  0.28802  0.62089  1.0000
  Li  Li34      1.0  0.16617  0.31211  0.59757  1.0000
  Li  Li35      1.0  0.02888  0.28211  0.66834  1.0000
  Li  Li36      1.0  0.08121  0.29822  0.68295  1.0000
  Li  Li37      1.0  0.09273  0.24019  0.66231  1.0000
  Li  Li38      1.0  0.05228  0.23866  0.68484  1.0000
  Li  Li39      1.0  0.06498  0.33084  0.62718  1.0000
  Li  Li40      1.0  0.05394  0.20157  0.64620  1.0000
  Li  Li41      1.0  0.04799  0.19908  0.60319  1.0000
  Li  Li42      1.0  0.10931  0.22617  0.61531  1.0000
  Li  Li43      1.0  0.02123  0.36745  0.63340  1.0000
  Li  Li44      1.0  0.03426  0.16158  0.59662  1.0000
  Li  Li45      1.0  0.98002  0.16248  0.61634  1.0000
  Li  Li46      1.0  0.99693  0.18013  0.56609  1.0000
  Li  Li47      1.0  0.99049  0.39737  0.67314  1.0000
  Li  Li48      1.0  0.02104  0.34742  0.69009  1.0000
  S   S1        1.0  0.00185  0.49891  0.76555  1.0000
  S   S2        1.0  0.01781  0.48054  0.74918  1.0000
  F   F1        1.0  0.99926  0.51143  0.75557  1.0000
  F   F2        1.0  0.03023  0.48504  0.74014  1.0000
  O   O1        1.0  0.00410  0.50369  0.77988  1.0000
  O   O2        1.0  0.98890  0.49127  0.76279  1.0000
  O   O3        1.0  0.02268  0.46743  0.75504  1.0000
  O   O4        1.0  0.00621  0.47927  0.73965  1.0000
  N   N1        1.0  0.01642  0.49198  0.76074  1.0000
  S   S3        1.0  0.99533  0.44256  0.81038  1.0000
  S   S4        1.0  0.99581  0.46919  0.79811  1.0000
  F   F3        1.0  0.00974  0.43841  0.81557  1.0000
  F   F4        1.0  0.98149  0.46721  0.79191  1.0000
  O   O5        1.0  0.99436  0.43560  0.79689  1.0000
  O   O6        1.0  0.98587  0.43642  0.82063  1.0000
  O   O7        1.0  0.99483  0.48342  0.80384  1.0000
  O   O8        1.0  0.00579  0.46749  0.78794  1.0000
  N   N2        1.0  0.99547  0.45897  0.81100  1.0000
  S   S5        1.0  0.97605  0.44523  0.73479  1.0000
  S   S6        1.0  0.98903  0.43831  0.76123  1.0000
  F   F5        1.0  0.97857  0.43514  0.72147  1.0000
  F   F6        1.0  0.97940  0.44407  0.77332  1.0000
  O   O9        1.0  0.98626  0.45600  0.73291  1.0000
  O   O10       1.0  0.96177  0.44973  0.73316  1.0000
  O   O11       1.0  0.99571  0.42570  0.76633  1.0000
  O   O12       1.0  0.99794  0.45089  0.75959  1.0000
  N   N3        1.0  0.97919  0.43576  0.74798  1.0000
  S   S7        1.0  0.02728  0.40408  0.79682  1.0000
  S   S8        1.0  0.02880  0.43015  0.78255  1.0000
  F   F7        1.0  0.02651  0.40485  0.81327  1.0000
  F   F8        1.0  0.03934  0.43826  0.79283  1.0000
  O   O13       1.0  0.04222  0.40247  0.79506  1.0000
  O   O14       1.0  0.01866  0.39200  0.79357  1.0000
  O   O15       1.0  0.03747  0.42372  0.77125  1.0000
  O   O16       1.0  0.01915  0.44099  0.77888  1.0000
  N   N4        1.0  0.02052  0.41834  0.79142  1.0000
  S   S9        1.0  0.95221  0.48317  0.81035  1.0000
  S   S10       1.0  0.95812  0.51123  0.80109  1.0000
  F   F9        1.0  0.94987  0.47352  0.79691  1.0000
  F   F10       1.0  0.95275  0.51592  0.78629  1.0000
  O   O17       1.0  0.94249  0.47776  0.82021  1.0000
  O   O18       1.0  0.96658  0.47959  0.81482  1.0000
  O   O19       1.0  0.95743  0.52395  0.80967  1.0000
  O   O20       1.0  0.97236  0.50625  0.79813  1.0000
  N   N5        1.0  0.94786  0.49903  0.80643  1.0000
  S   S11       1.0  0.98754  0.50289  0.84544  1.0000
  S   S12       1.0  0.99713  0.52126  0.82410  1.0000
  F   F11       1.0  0.97110  0.50721  0.84214  1.0000
  F   F12       1.0  0.01218  0.52981  0.82289  1.0000
  O   O21       1.0  0.98697  0.50315  0.86071  1.0000
  O   O22       1.0  0.99037  0.48891  0.83903  1.0000
  O   O23       1.0  0.99961  0.51042  0.81380  1.0000
  O   O24       1.0  0.98622  0.53111  0.81990  1.0000
  N   N6        1.0  0.99706  0.51553  0.84012  1.0000
  S   S13       1.0  0.98263  0.39667  0.80332  1.0000
  S   S14       1.0  0.98170  0.37069  0.78913  1.0000
  F   F13       1.0  0.99563  0.39284  0.81291  1.0000
  F   F14       1.0  0.97854  0.35559  0.79556  1.0000
  O   O25       1.0  0.97229  0.40420  0.81213  1.0000
  O   O26       1.0  0.98907  0.40443  0.79186  1.0000
  O   O27       1.0  0.97454  0.37049  0.77579  1.0000
  O   O28       1.0  0.99617  0.37124  0.78798  1.0000
  N   N7        1.0  0.97555  0.38244  0.79910  1.0000
  S   S15       1.0  0.96667  0.45430  0.84364  1.0000
  S   S16       1.0  0.96687  0.42541  0.85203  1.0000
  F   F15       1.0  0.96024  0.46636  0.85291  1.0000
  F   F16       1.0  0.95215  0.42376  0.86047  1.0000
  O   O29       1.0  0.95508  0.45206  0.83373  1.0000
  O   O30       1.0  0.97852  0.46168  0.83727  1.0000
  O   O31       1.0  0.96387  0.42114  0.83762  1.0000
  O   O32       1.0  0.97537  0.41625  0.86017  1.0000
  N   N8        1.0  0.97219  0.44144  0.85315  1.0000
  S   S17       1.0  0.94408  0.43399  0.79845  1.0000
  S   S18       1.0  0.91578  0.42317  0.79664  1.0000
  F   F17       1.0  0.94936  0.43946  0.78252  1.0000
  F   F18       1.0  0.91322  0.41388  0.81037  1.0000
  O   O33       1.0  0.95689  0.42824  0.80470  1.0000
  O   O34       1.0  0.93819  0.44623  0.80578  1.0000
  O   O35       1.0  0.91059  0.43636  0.80185  1.0000
  O   O36       1.0  0.90890  0.41784  0.78437  1.0000
  N   N9        1.0  0.93173  0.42312  0.79492  1.0000
  S   S19       1.0  0.91441  0.45618  0.76797  1.0000
  S   S20       1.0  0.91399  0.46843  0.74144  1.0000
  F   F19       1.0  0.93064  0.46046  0.77266  1.0000
  F   F20       1.0  0.90448  0.45799  0.73276  1.0000
  O   O37       1.0  0.91530  0.44215  0.76244  1.0000
  O   O38       1.0  0.90639  0.45814  0.78080  1.0000
  O   O39       1.0  0.91276  0.48240  0.73543  1.0000
  O   O40       1.0  0.92840  0.46413  0.73955  1.0000
  N   N10       1.0  0.90899  0.46787  0.75769  1.0000
  S   S21       1.0  0.03068  0.37402  0.72923  1.0000
  S   S22       1.0  0.02285  0.38220  0.75738  1.0000
  F   F21       1.0  0.02035  0.36654  0.71855  1.0000
  F   F22       1.0  0.00816  0.39100  0.75656  1.0000
  O   O41       1.0  0.04425  0.36641  0.72836  1.0000
  O   O42       1.0  0.03151  0.38840  0.72492  1.0000
  O   O43       1.0  0.02261  0.37417  0.77021  1.0000
  O   O44       1.0  0.03366  0.39340  0.75835  1.0000
  N   N11       1.0  0.02308  0.37208  0.74415  1.0000
  S   S23       1.0  0.06510  0.40294  0.73905  1.0000
  S   S24       1.0  0.07401  0.41266  0.76560  1.0000
  F   F23       1.0  0.08049  0.40614  0.73552  1.0000
  F   F24       1.0  0.07964  0.42826  0.76265  1.0000
  O   O45       1.0  0.05658  0.40913  0.72706  1.0000
  O   O46       1.0  0.06335  0.38769  0.73993  1.0000
  O   O47       1.0  0.06712  0.41384  0.77885  1.0000
  O   O48       1.0  0.08641  0.40385  0.76543  1.0000
  N   N12       1.0  0.06285  0.41113  0.75352  1.0000
  S   S25       1.0  0.04817  0.35018  0.79254  1.0000
  S   S26       1.0  0.06108  0.36665  0.77127  1.0000
  F   F25       1.0  0.05580  0.35496  0.80608  1.0000
  F   F26       1.0  0.05044  0.36547  0.75946  1.0000
  O   O49       1.0  0.04549  0.33520  0.79516  1.0000
  O   O50       1.0  0.03594  0.35928  0.79186  1.0000
  O   O51       1.0  0.05805  0.37928  0.77809  1.0000
  O   O52       1.0  0.07407  0.36659  0.76304  1.0000
  N   N13       1.0  0.05914  0.35239  0.77979  1.0000
  S   S27       1.0  0.11410  0.37922  0.81340  1.0000
  S   S28       1.0  0.09027  0.38911  0.79860  1.0000
  F   F27       1.0  0.11259  0.36322  0.81169  1.0000
  F   F28       1.0  0.09963  0.40211  0.79437  1.0000
  O   O53       1.0  0.12030  0.38030  0.82729  1.0000
  O   O54       1.0  0.12276  0.38347  0.80186  1.0000
  O   O55       1.0  0.09063  0.37946  0.78655  1.0000
  O   O56       1.0  0.07676  0.39524  0.79981  1.0000
  N   N14       1.0  0.09774  0.38429  0.81301  1.0000
  S   S29       1.0  0.91229  0.45931  0.83112  1.0000
  S   S30       1.0  0.88620  0.44405  0.82670  1.0000
  F   F29       1.0  0.91004  0.47305  0.83985  1.0000
  F   F30       1.0  0.88711  0.42768  0.82398  1.0000
  O   O57       1.0  0.91243  0.46403  0.81689  1.0000
  O   O58       1.0  0.92543  0.45291  0.83547  1.0000
  O   O59       1.0  0.87264  0.44627  0.83389  1.0000
  O   O60       1.0  0.88566  0.44964  0.81209  1.0000
  N   N15       1.0  0.89976  0.44918  0.83569  1.0000
  S   S31       1.0  0.94028  0.35492  0.76735  1.0000
  S   S32       1.0  0.93617  0.32448  0.76372  1.0000
  F   F31       1.0  0.94745  0.35482  0.78279  1.0000
  F   F32       1.0  0.94804  0.31538  0.77067  1.0000
  O   O61       1.0  0.92565  0.35799  0.77067  1.0000
  O   O62       1.0  0.94714  0.36599  0.75941  1.0000
  O   O63       1.0  0.92369  0.32391  0.77295  1.0000
  O   O64       1.0  0.93327  0.31795  0.74982  1.0000
  N   N16       1.0  0.94376  0.33999  0.76142  1.0000
  S   S33       1.0  0.88242  0.41271  0.74737  1.0000
  S   S34       1.0  0.90484  0.39432  0.75230  1.0000
  F   F33       1.0  0.88463  0.41710  0.73145  1.0000
  F   F34       1.0  0.91055  0.38815  0.73819  1.0000
  O   O65       1.0  0.88880  0.42274  0.75655  1.0000
  O   O66       1.0  0.86729  0.41134  0.74990  1.0000
  O   O67       1.0  0.91335  0.40686  0.75543  1.0000
  O   O68       1.0  0.90625  0.38233  0.76171  1.0000
  N   N17       1.0  0.88882  0.39772  0.74839  1.0000
  S   S35       1.0  0.09141  0.37111  0.72056  1.0000
  S   S36       1.0  0.11079  0.37548  0.74354  1.0000
  F   F35       1.0  0.08947  0.38625  0.71284  1.0000
  F   F36       1.0  0.11620  0.39173  0.74287  1.0000
  O   O69       1.0  0.07750  0.36446  0.71870  1.0000
  O   O70       1.0  0.10204  0.36376  0.71255  1.0000
  O   O71       1.0  0.10836  0.37333  0.75884  1.0000
  O   O72       1.0  0.12132  0.36731  0.73654  1.0000
  N   N18       1.0  0.09598  0.37605  0.73600  1.0000
  S   S37       1.0  0.13172  0.35130  0.77609  1.0000
  S   S38       1.0  0.10581  0.33951  0.76594  1.0000
  F   F37       1.0  0.14010  0.34008  0.78586  1.0000
  F   F38       1.0  0.10493  0.32249  0.76969  1.0000
  O   O73       1.0  0.13363  0.36434  0.78388  1.0000
  O   O74       1.0  0.13779  0.35032  0.76181  1.0000
  O   O75       1.0  0.09164  0.34413  0.76913  1.0000
  O   O76       1.0  0.11115  0.34078  0.75131  1.0000
  N   N19       1.0  0.11674  0.34478  0.77727  1.0000
  S   S39       1.0  0.92836  0.28490  0.79017  1.0000
  S   S40       1.0  0.90520  0.29913  0.80347  1.0000
  F   F39       1.0  0.92301  0.26982  0.78574  1.0000
  F   F40       1.0  0.90804  0.31105  0.81490  1.0000
  O   O77       1.0  0.94319  0.28329  0.79296  1.0000
  O   O78       1.0  0.92552  0.29308  0.77697  1.0000
  O   O79       1.0  0.90328  0.30615  0.78990  1.0000
  O   O80       1.0  0.89328  0.29211  0.80873  1.0000
  N   N20       1.0  0.91860  0.28918  0.80322  1.0000
  S   S41       1.0  0.89926  0.30045  0.74320  1.0000
  S   S42       1.0  0.87416  0.29563  0.72709  1.0000
  F   F41       1.0  0.90568  0.28597  0.74661  1.0000
  F   F42       1.0  0.86971  0.28009  0.72551  1.0000
  O   O81       1.0  0.90230  0.30713  0.75596  1.0000
  O   O82       1.0  0.90578  0.30606  0.73066  1.0000
  O   O83       1.0  0.86177  0.30398  0.72828  1.0000
  O   O84       1.0  0.88110  0.29812  0.71364  1.0000
  N   N21       1.0  0.88340  0.29712  0.74101  1.0000
  S   S43       1.0  0.87909  0.33861  0.71914  1.0000
  S   S44       1.0  0.90137  0.34726  0.73815  1.0000
  F   F43       1.0  0.87922  0.35211  0.71096  1.0000
  F   F44       1.0  0.90587  0.35648  0.72609  1.0000
  O   O85       1.0  0.86453  0.33433  0.71984  1.0000
  O   O86       1.0  0.88836  0.32875  0.71154  1.0000
  O   O87       1.0  0.90239  0.35668  0.75017  1.0000
  O   O88       1.0  0.91142  0.33555  0.73762  1.0000
  N   N22       1.0  0.88522  0.34282  0.73424  1.0000
  S   S45       1.0  0.94448  0.31199  0.71012  1.0000
  S   S46       1.0  0.92489  0.29667  0.69328  1.0000
  F   F45       1.0  0.95226  0.32345  0.69981  1.0000
  F   F46       1.0  0.92540  0.30386  0.67837  1.0000
  O   O89       1.0  0.95591  0.30746  0.71976  1.0000
  O   O90       1.0  0.93316  0.31998  0.71650  1.0000
  O   O91       1.0  0.92346  0.28201  0.68901  1.0000
  O   O92       1.0  0.91310  0.30437  0.69963  1.0000
  N   N23       1.0  0.94009  0.29967  0.70010  1.0000
  S   S47       1.0  0.82535  0.39762  0.76531  1.0000
  S   S48       1.0  0.81393  0.37008  0.76885  1.0000
  F   F47       1.0  0.81995  0.40705  0.77780  1.0000
  F   F48       1.0  0.80097  0.37337  0.77990  1.0000
  O   O93       1.0  0.81544  0.40107  0.75415  1.0000
  O   O94       1.0  0.83954  0.40265  0.76356  1.0000
  O   O95       1.0  0.80789  0.37016  0.75527  1.0000
  O   O96       1.0  0.81908  0.35656  0.77315  1.0000
  N   N24       1.0  0.82502  0.38267  0.77176  1.0000
  S   S49       1.0  0.14835  0.32910  0.72394  1.0000
  S   S50       1.0  0.14517  0.34844  0.70081  1.0000
  F   F49       1.0  0.13967  0.31560  0.71928  1.0000
  F   F50       1.0  0.15315  0.36316  0.70430  1.0000
  O   O97       1.0  0.13936  0.33806  0.73288  1.0000
  O   O98       1.0  0.16015  0.32319  0.73119  1.0000
  O   O99       1.0  0.14696  0.34707  0.68560  1.0000
  O   O100      1.0  0.13066  0.35098  0.70357  1.0000
  N   N25       1.0  0.15388  0.33700  0.70978  1.0000
  S   S51       1.0  0.11471  0.30761  0.68671  1.0000
  S   S52       1.0  0.09486  0.32428  0.70271  1.0000
  F   F51       1.0  0.11925  0.29536  0.69734  1.0000
  F   F52       1.0  0.09078  0.31703  0.71680  1.0000
  O   O101      1.0  0.12548  0.31909  0.68764  1.0000
  O   O102      1.0  0.11414  0.30094  0.67319  1.0000
  O   O103      1.0  0.10649  0.33327  0.70628  1.0000
  O   O104      1.0  0.08211  0.33120  0.69834  1.0000
  N   N26       1.0  0.09943  0.31156  0.69220  1.0000
  S   S53       1.0  0.11604  0.36572  0.64403  1.0000
  S   S54       1.0  0.10910  0.34996  0.66752  1.0000
  F   F53       1.0  0.13014  0.37045  0.64957  1.0000
  F   F54       1.0  0.09864  0.33804  0.66288  1.0000
  O   O105      1.0  0.11098  0.37830  0.63757  1.0000
  O   O106      1.0  0.11920  0.35453  0.63387  1.0000
  O   O107      1.0  0.12317  0.34340  0.66715  1.0000
  O   O108      1.0  0.10450  0.35341  0.68162  1.0000
  N   N27       1.0  0.10692  0.36234  0.65742  1.0000
  S   S55       1.0  0.89365  0.28164  0.66719  1.0000
  S   S56       1.0  0.87719  0.30587  0.67374  1.0000
  F   F55       1.0  0.90396  0.28872  0.65618  1.0000
  F   F56       1.0  0.86128  0.29954  0.67162  1.0000
  O   O109      1.0  0.88198  0.27559  0.65912  1.0000
  O   O110      1.0  0.90218  0.27096  0.67373  1.0000
  O   O111      1.0  0.87568  0.31491  0.68596  1.0000
  O   O112      1.0  0.87938  0.31481  0.66154  1.0000
  N   N28       1.0  0.88854  0.29361  0.67762  1.0000
  S   S57       1.0  0.16159  0.30336  0.62767  1.0000
  S   S58       1.0  0.14587  0.31561  0.65095  1.0000
  F   F57       1.0  0.17185  0.29062  0.63173  1.0000
  F   F58       1.0  0.13663  0.30225  0.65422  1.0000
  O   O113      1.0  0.17030  0.31254  0.61917  1.0000
  O   O114      1.0  0.14900  0.29723  0.62080  1.0000
  O   O115      1.0  0.14760  0.32197  0.66453  1.0000
  O   O116      1.0  0.13611  0.32364  0.64223  1.0000
  N   N29       1.0  0.15895  0.30947  0.64269  1.0000
  S   S59       1.0  0.05353  0.26392  0.66007  1.0000
  S   S60       1.0  0.07951  0.27002  0.67341  1.0000
  F   F59       1.0  0.06024  0.26076  0.64476  1.0000
  F   F60       1.0  0.07614  0.26545  0.68925  1.0000
  O   O117      1.0  0.04028  0.26961  0.65713  1.0000
  O   O118      1.0  0.05113  0.25049  0.66695  1.0000
  O   O119      1.0  0.08623  0.25811  0.66647  1.0000
  O   O120      1.0  0.08882  0.28230  0.67462  1.0000
  N   N30       1.0  0.06387  0.27412  0.66797  1.0000
  S   S61       1.0  0.12356  0.25853  0.66510  1.0000
  S   S62       1.0  0.14389  0.26579  0.64336  1.0000
  F   F61       1.0  0.13022  0.25809  0.68044  1.0000
  F   F62       1.0  0.15379  0.27653  0.65147  1.0000
  O   O121      1.0  0.11375  0.24659  0.66495  1.0000
  O   O122      1.0  0.11669  0.27297  0.66363  1.0000
  O   O123      1.0  0.15409  0.25867  0.63400  1.0000
  O   O124      1.0  0.13306  0.27381  0.63599  1.0000
  N   N31       1.0  0.13731  0.25562  0.65508  1.0000
  S   S63       1.0  0.13326  0.32383  0.60065  1.0000
  S   S64       1.0  0.12494  0.29600  0.59016  1.0000
  F   F63       1.0  0.12671  0.33310  0.58866  1.0000
  F   F64       1.0  0.11134  0.29636  0.58140  1.0000
  O   O125      1.0  0.14837  0.32173  0.59736  1.0000
  O   O126      1.0  0.13142  0.33215  0.61358  1.0000
  O   O127      1.0  0.13624  0.29790  0.58016  1.0000
  O   O128      1.0  0.12407  0.28307  0.59770  1.0000
  N   N32       1.0  0.12436  0.30981  0.60035  1.0000
  S   S65       1.0  0.10431  0.30825  0.63257  1.0000
  S   S66       1.0  0.07938  0.30590  0.64798  1.0000
  F   F65       1.0  0.09353  0.30629  0.61989  1.0000
  F   F66       1.0  0.07153  0.29131  0.64565  1.0000
  O   O129      1.0  0.11629  0.29875  0.62918  1.0000
  O   O130      1.0  0.10811  0.32267  0.63305  1.0000
  O   O131      1.0  0.07742  0.30822  0.66283  1.0000
  O   O132      1.0  0.07449  0.31681  0.63806  1.0000
  N   N33       1.0  0.09580  0.30236  0.64590  1.0000
  S   S67       1.0  0.05244  0.28858  0.69692  1.0000
  S   S68       1.0  0.03590  0.26296  0.69787  1.0000
  F   F67       1.0  0.04798  0.29662  0.71094  1.0000
  F   F68       1.0  0.02808  0.26228  0.71282  1.0000
  O   O133      1.0  0.04328  0.29469  0.68605  1.0000
  O   O134      1.0  0.06683  0.29139  0.69425  1.0000
  O   O135      1.0  0.02688  0.26923  0.68735  1.0000
  O   O136      1.0  0.03820  0.24792  0.69450  1.0000
  N   N34       1.0  0.04992  0.27270  0.69973  1.0000
  S   S69       1.0  0.05246  0.20721  0.67916  1.0000
  S   S70       1.0  0.07746  0.22212  0.68753  1.0000
  F   F69       1.0  0.04771  0.19456  0.68909  1.0000
  F   F70       1.0  0.08486  0.21434  0.69968  1.0000
  O   O137      1.0  0.04878  0.20083  0.66570  1.0000
  O   O138      1.0  0.04455  0.21919  0.68369  1.0000
  O   O139      1.0  0.08794  0.22766  0.67827  1.0000
  O   O140      1.0  0.06813  0.23266  0.69369  1.0000
  N   N35       1.0  0.06958  0.20964  0.68035  1.0000
  S   S71       1.0  0.08490  0.24181  0.62993  1.0000
  S   S72       1.0  0.06157  0.22410  0.62398  1.0000
  F   F71       1.0  0.08383  0.25865  0.62791  1.0000
  F   F72       1.0  0.04717  0.23212  0.62914  1.0000
  O   O141      1.0  0.09917  0.23868  0.62452  1.0000
  O   O142      1.0  0.08390  0.24075  0.64501  1.0000
  O   O143      1.0  0.05714  0.21615  0.61136  1.0000
  O   O144      1.0  0.06446  0.21547  0.63669  1.0000
  N   N36       1.0  0.07282  0.23594  0.62065  1.0000
  S   S73       1.0  0.03493  0.34359  0.61936  1.0000
  S   S74       1.0  0.01737  0.35929  0.60212  1.0000
  F   F73       1.0  0.02381  0.33398  0.62834  1.0000
  F   F74       1.0  0.02536  0.37102  0.59459  1.0000
  O   O145      1.0  0.03654  0.35495  0.62904  1.0000
  O   O146      1.0  0.04748  0.33434  0.61798  1.0000
  O   O147      1.0  0.00678  0.35493  0.59267  1.0000
  O   O148      1.0  0.01227  0.36442  0.61560  1.0000
  N   N37       1.0  0.02709  0.34640  0.60503  1.0000
  S   S75       1.0  0.01323  0.16950  0.62148  1.0000
  S   S76       1.0  0.02628  0.19664  0.62607  1.0000
  F   F75       1.0  0.01970  0.15780  0.63175  1.0000
  F   F76       1.0  0.01753  0.21085  0.62693  1.0000
  O   O149      1.0  0.02061  0.16709  0.60819  1.0000
  O   O150      1.0  0.99830  0.16676  0.62030  1.0000
  O   O151      1.0  0.03733  0.19908  0.63674  1.0000
  O   O152      1.0  0.03211  0.19657  0.61193  1.0000
  N   N38       1.0  0.01600  0.18409  0.62974  1.0000
  S   S77       1.0  0.06257  0.17100  0.61157  1.0000
  S   S78       1.0  0.07354  0.17305  0.63980  1.0000
  F   F77       1.0  0.07079  0.16407  0.59860  1.0000
  F   F78       1.0  0.06732  0.15974  0.64916  1.0000
  O   O153      1.0  0.06177  0.18579  0.60694  1.0000
  O   O154      1.0  0.04914  0.16348  0.61148  1.0000
  O   O155      1.0  0.08799  0.17464  0.64542  1.0000
  O   O156      1.0  0.06368  0.18364  0.64442  1.0000
  N   N39       1.0  0.07270  0.16707  0.62397  1.0000
  S   S79       1.0  0.02552  0.18318  0.55329  1.0000
  S   S80       1.0  0.04603  0.18556  0.57514  1.0000
  F   F79       1.0  0.02933  0.17001  0.54392  1.0000
  F   F80       1.0  0.06143  0.18091  0.57232  1.0000
  O   O157      1.0  0.01953  0.19335  0.54362  1.0000
  O   O158      1.0  0.01540  0.17817  0.56399  1.0000
  O   O159      1.0  0.04762  0.19784  0.58427  1.0000
  O   O160      1.0  0.04066  0.17327  0.58269  1.0000
  N   N40       1.0  0.04005  0.18874  0.55993  1.0000
  S   S81       1.0  0.02255  0.39502  0.65039  1.0000
  S   S82       1.0  0.00504  0.41970  0.65413  1.0000
  F   F81       1.0  0.03784  0.40033  0.65592  1.0000
  F   F82       1.0  0.01503  0.43361  0.65778  1.0000
  O   O161      1.0  0.02495  0.38487  0.63903  1.0000
  O   O162      1.0  0.01705  0.38962  0.66296  1.0000
  O   O163      1.0  0.99396  0.42494  0.64538  1.0000
  O   O164      1.0  0.00098  0.41367  0.66777  1.0000
  N   N41       1.0  0.01400  0.40890  0.64461  1.0000
  S   S83       1.0  0.99469  0.36562  0.68400  1.0000
  S   S84       1.0  0.00712  0.35106  0.66168  1.0000
  F   F83       1.0  0.98047  0.36048  0.68991  1.0000
  F   F84       1.0  0.00121  0.33609  0.65980  1.0000
  O   O165      1.0  0.99261  0.38053  0.68215  1.0000
  O   O166      1.0  0.00558  0.36102  0.69374  1.0000
  O   O167      1.0  0.01002  0.35595  0.64803  1.0000
  O   O168      1.0  0.01890  0.34912  0.67065  1.0000
  N   N42       1.0  0.99473  0.35936  0.66827  1.0000
  S   S85       1.0  0.01716  0.13935  0.57881  1.0000
  S   S86       1.0  0.99046  0.15209  0.58499  1.0000
  F   F85       1.0  0.02028  0.12277  0.57953  1.0000
  F   F86       1.0  0.98066  0.14561  0.57212  1.0000
  O   O169      1.0  0.02858  0.14503  0.58691  1.0000
  O   O170      1.0  0.01778  0.14217  0.56332  1.0000
  O   O171      1.0  0.98088  0.15325  0.59730  1.0000
  O   O172      1.0  0.99537  0.16517  0.57950  1.0000
  N   N43       1.0  0.00261  0.14068  0.58686  1.0000
  S   S87       1.0  0.96487  0.18220  0.63295  1.0000
  S   S88       1.0  0.97501  0.15583  0.64419  1.0000
  F   F87       1.0  0.97854  0.19256  0.63543  1.0000
  F   F88       1.0  0.99044  0.16001  0.64628  1.0000
  O   O173      1.0  0.95327  0.19193  0.63558  1.0000
  O   O174      1.0  0.96722  0.17634  0.61919  1.0000
  O   O175      1.0  0.97175  0.14620  0.65551  1.0000
  O   O176      1.0  0.97396  0.14925  0.63020  1.0000
  N   N44       1.0  0.96645  0.17049  0.64529  1.0000
