data_image0
_chemical_formula_structural       Li13S2F2O4NS2F2O4NS2F2O4NS2F2O4NS2F2O4NS2F2O4NS2F2O4NS2F2O4NS2F2O4NS2F2O4NS2F2O4NS2F2O4NS2F2O4N
_chemical_formula_sum              "Li13 S26 F26 O52 N13"
_cell_length_a       93.5399
_cell_length_b       93.5399
_cell_length_c       93.5399
_cell_angle_alpha    90
_cell_angle_beta     90
_cell_angle_gamma    90

_space_group_name_H-M_alt    "P 1"
_space_group_IT_number       1

loop_
  _space_group_symop_operation_xyz
  'x, y, z'

loop_
  _atom_site_type_symbol
  _atom_site_label
  _atom_site_symmetry_multiplicity
  _atom_site_fract_x
  _atom_site_fract_y
  _atom_site_fract_z
  _atom_site_occupancy
  Li  Li1       1.0  0.42378  0.44325  0.11341  1.0000
  Li  Li2       1.0  0.48396  0.39068  0.10475  1.0000
  Li  Li3       1.0  0.48412  0.43261  0.13860  1.0000
  Li  Li4       1.0  0.43588  0.39814  0.10694  1.0000
  Li  Li5       1.0  0.38580  0.44692  0.11694  1.0000
  Li  Li6       1.0  0.45449  0.39632  0.16659  1.0000
  Li  Li7       1.0  0.46415  0.45187  0.11347  1.0000
  Li  Li8       1.0  0.47800  0.50075  0.10205  1.0000
  Li  Li9       1.0  0.48264  0.48887  0.15559  1.0000
  Li  Li10      1.0  0.42815  0.42783  0.15903  1.0000
  Li  Li11      1.0  0.43895  0.50627  0.10338  1.0000
  Li  Li12      1.0  0.41198  0.49648  0.08145  1.0000
  Li  Li13      1.0  0.41309  0.52938  0.13904  1.0000
  S   S1        1.0  0.47654  0.42787  0.10426  1.0000
  S   S2        1.0  0.44766  0.42811  0.09425  1.0000
  F   F1        1.0  0.48602  0.43562  0.09200  1.0000
  F   F2        1.0  0.45139  0.43111  0.07855  1.0000
  O   O1        1.0  0.47737  0.41233  0.10183  1.0000
  O   O2        1.0  0.48347  0.43261  0.11732  1.0000
  O   O3        1.0  0.44549  0.41288  0.09524  1.0000
  O   O4        1.0  0.43491  0.43583  0.09697  1.0000
  N   N1        1.0  0.46146  0.43450  0.10178  1.0000
  S   S3        1.0  0.37891  0.41916  0.10064  1.0000
  S   S4        1.0  0.40795  0.41171  0.10299  1.0000
  F   F3        1.0  0.38040  0.42686  0.08543  1.0000
  F   F4        1.0  0.41238  0.41348  0.08708  1.0000
  O   O5        1.0  0.38045  0.43036  0.11103  1.0000
  O   O6        1.0  0.36501  0.41348  0.10103  1.0000
  O   O7        1.0  0.41130  0.42527  0.11004  1.0000
  O   O8        1.0  0.41698  0.40049  0.10858  1.0000
  N   N2        1.0  0.39127  0.40849  0.10107  1.0000
  S   S5        1.0  0.46013  0.42906  0.16291  1.0000
  S   S6        1.0  0.44764  0.44145  0.13879  1.0000
  F   F5        1.0  0.46161  0.44065  0.17455  1.0000
  F   F6        1.0  0.44365  0.45773  0.14298  1.0000
  O   O9        1.0  0.47417  0.42907  0.15576  1.0000
  O   O10       1.0  0.45762  0.41627  0.17094  1.0000
  O   O11       1.0  0.46100  0.44364  0.13256  1.0000
  O   O12       1.0  0.43653  0.43825  0.12886  1.0000
  N   N3        1.0  0.44652  0.43289  0.15321  1.0000
  S   S7        1.0  0.45237  0.40038  0.13362  1.0000
  S   S8        1.0  0.45931  0.37782  0.11462  1.0000
  F   F7        1.0  0.46589  0.40984  0.13214  1.0000
  F   F8        1.0  0.45208  0.36252  0.11703  1.0000
  O   O13       1.0  0.44819  0.40145  0.14841  1.0000
  O   O14       1.0  0.44220  0.40636  0.12409  1.0000
  O   O15       1.0  0.45042  0.38395  0.10430  1.0000
  O   O16       1.0  0.47344  0.37457  0.11004  1.0000
  N   N4        1.0  0.45820  0.38480  0.12996  1.0000
  S   S9        1.0  0.50638  0.37904  0.08100  1.0000
  S   S10       1.0  0.50106  0.35365  0.06518  1.0000
  F   F9        1.0  0.51252  0.37094  0.09475  1.0000
  F   F10       1.0  0.49468  0.34198  0.07494  1.0000
  O   O17       1.0  0.49901  0.39048  0.08853  1.0000
  O   O18       1.0  0.51873  0.38443  0.07451  1.0000
  O   O19       1.0  0.49598  0.35156  0.05086  1.0000
  O   O20       1.0  0.51609  0.35161  0.06581  1.0000
  N   N5        1.0  0.49631  0.36823  0.07202  1.0000
  S   S11       1.0  0.48872  0.39058  0.16512  1.0000
  S   S12       1.0  0.49802  0.40109  0.13810  1.0000
  F   F11       1.0  0.49451  0.37525  0.16920  1.0000
  F   F12       1.0  0.51400  0.39716  0.13852  1.0000
  O   O21       1.0  0.47379  0.38903  0.16954  1.0000
  O   O22       1.0  0.49712  0.40032  0.17287  1.0000
  O   O23       1.0  0.49538  0.39808  0.12313  1.0000
  O   O24       1.0  0.49780  0.41626  0.14098  1.0000
  N   N6        1.0  0.48920  0.39097  0.14798  1.0000
  S   S13       1.0  0.49986  0.46337  0.14175  1.0000
  S   S14       1.0  0.49308  0.47018  0.11422  1.0000
  F   F13       1.0  0.51412  0.46222  0.14885  1.0000
  F   F14       1.0  0.50299  0.46156  0.10338  1.0000
  O   O25       1.0  0.49558  0.44863  0.13994  1.0000
  O   O26       1.0  0.49125  0.47195  0.15137  1.0000
  O   O27       1.0  0.48007  0.46200  0.11590  1.0000
  O   O28       1.0  0.49038  0.48379  0.10738  1.0000
  N   N7        1.0  0.50219  0.47168  0.12788  1.0000
  S   S15       1.0  0.37355  0.45302  0.14446  1.0000
  S   S16       1.0  0.40351  0.44832  0.14458  1.0000
  F   F15       1.0  0.36293  0.44235  0.15027  1.0000
  F   F16       1.0  0.40922  0.46329  0.14658  1.0000
  O   O29       1.0  0.37242  0.45154  0.12945  1.0000
  O   O30       1.0  0.36896  0.46663  0.14968  1.0000
  O   O31       1.0  0.41315  0.43952  0.15203  1.0000
  O   O32       1.0  0.40320  0.44613  0.12921  1.0000
  N   N8        1.0  0.38827  0.44888  0.15100  1.0000
  S   S17       1.0  0.40719  0.46962  0.10454  1.0000
  S   S18       1.0  0.43718  0.47203  0.10228  1.0000
  F   F17       1.0  0.40355  0.47873  0.11885  1.0000
  F   F18       1.0  0.43934  0.46937  0.08543  1.0000
  O   O33       1.0  0.39673  0.45847  0.10361  1.0000
  O   O34       1.0  0.40642  0.48031  0.09392  1.0000
  O   O35       1.0  0.43702  0.48730  0.10306  1.0000
  O   O36       1.0  0.44950  0.46609  0.10951  1.0000
  N   N9        1.0  0.42279  0.46366  0.10621  1.0000
  S   S19       1.0  0.42657  0.40082  0.17636  1.0000
  S   S20       1.0  0.42483  0.42686  0.19148  1.0000
  F   F19       1.0  0.41359  0.39070  0.17904  1.0000
  F   F20       1.0  0.40784  0.42917  0.19363  1.0000
  O   O37       1.0  0.43847  0.39101  0.17573  1.0000
  O   O38       1.0  0.42504  0.40900  0.16349  1.0000
  O   O39       1.0  0.43172  0.43252  0.20396  1.0000
  O   O40       1.0  0.42855  0.43478  0.17900  1.0000
  N   N10       1.0  0.42724  0.41015  0.19051  1.0000
  S   S21       1.0  0.43792  0.49076  0.05848  1.0000
  S   S22       1.0  0.45655  0.50766  0.07597  1.0000
  F   F21       1.0  0.43258  0.50192  0.04729  1.0000
  F   F22       1.0  0.46369  0.52223  0.06863  1.0000
  O   O41       1.0  0.42754  0.49058  0.06957  1.0000
  O   O42       1.0  0.43782  0.47788  0.05013  1.0000
  O   O43       1.0  0.44548  0.51289  0.08485  1.0000
  O   O44       1.0  0.46892  0.50308  0.08402  1.0000
  N   N11       1.0  0.45288  0.49666  0.06332  1.0000
  S   S23       1.0  0.46105  0.50023  0.13253  1.0000
  S   S24       1.0  0.44192  0.52215  0.13385  1.0000
  F   F23       1.0  0.44959  0.48798  0.13068  1.0000
  F   F24       1.0  0.45069  0.53716  0.13023  1.0000
  O   O45       1.0  0.47161  0.49282  0.14030  1.0000
  O   O46       1.0  0.46472  0.50379  0.11782  1.0000
  O   O47       1.0  0.43758  0.51692  0.11982  1.0000
  O   O48       1.0  0.43095  0.52617  0.14411  1.0000
  N   N12       1.0  0.45311  0.51262  0.14098  1.0000
  S   S25       1.0  0.40247  0.52373  0.07230  1.0000
  S   S26       1.0  0.40441  0.51880  0.10231  1.0000
  F   F25       1.0  0.41798  0.52777  0.06789  1.0000
  F   F26       1.0  0.39099  0.50923  0.10512  1.0000
  O   O49       1.0  0.39237  0.53205  0.06479  1.0000
  O   O50       1.0  0.40138  0.50907  0.06943  1.0000
  O   O51       1.0  0.41487  0.50787  0.09898  1.0000
  O   O52       1.0  0.40641  0.52727  0.11512  1.0000
  N   N13       1.0  0.40165  0.52864  0.08862  1.0000
