data_image0
_chemical_formula_structural       Li19S2F2O4NS2F2O4NS2F2O4NS2F2O4NS2F2O4NS2F2O4NS2F2O4NS2F2O4NS2F2O4NS2F2O4NS2F2O4NS2F2O4NS2F2O4NS2F2O4NS2F2O4NS2F2O4NS2F2O4N
_chemical_formula_sum              "Li19 S34 F34 O68 N17"
_cell_length_a       93.5399
_cell_length_b       93.5399
_cell_length_c       93.5399
_cell_angle_alpha    90
_cell_angle_beta     90
_cell_angle_gamma    90

_space_group_name_H-M_alt    "P 1"
_space_group_IT_number       1

loop_
  _space_group_symop_operation_xyz
  'x, y, z'

loop_
  _atom_site_type_symbol
  _atom_site_label
  _atom_site_symmetry_multiplicity
  _atom_site_fract_x
  _atom_site_fract_y
  _atom_site_fract_z
  _atom_site_occupancy
  Li  Li1       1.0  0.90984  0.23514  0.25648  1.0000
  Li  Li2       1.0  0.93466  0.20613  0.21405  1.0000
  Li  Li3       1.0  0.87676  0.17221  0.26817  1.0000
  Li  Li4       1.0  0.89817  0.21203  0.28850  1.0000
  Li  Li5       1.0  0.88683  0.26105  0.26852  1.0000
  Li  Li6       1.0  0.84202  0.22429  0.28705  1.0000
  Li  Li7       1.0  0.93978  0.27745  0.28226  1.0000
  Li  Li8       1.0  0.93697  0.23709  0.28380  1.0000
  Li  Li9       1.0  0.90517  0.29429  0.25805  1.0000
  Li  Li10      1.0  0.85554  0.17054  0.32429  1.0000
  Li  Li11      1.0  0.97506  0.22199  0.28676  1.0000
  Li  Li12      1.0  0.90711  0.19303  0.34198  1.0000
  Li  Li13      1.0  0.90831  0.31562  0.22683  1.0000
  Li  Li14      1.0  0.83582  0.29473  0.25734  1.0000
  Li  Li15      1.0  0.86072  0.15726  0.40381  1.0000
  Li  Li16      1.0  0.89012  0.14365  0.36937  1.0000
  Li  Li17      1.0  0.78888  0.29112  0.29897  1.0000
  Li  Li18      1.0  0.86434  0.13114  0.42891  1.0000
  Li  Li19      1.0  0.82467  0.19008  0.41068  1.0000
  S   S1        1.0  0.92624  0.20647  0.25094  1.0000
  S   S2        1.0  0.90537  0.19152  0.26420  1.0000
  F   F1        1.0  0.93928  0.20178  0.26116  1.0000
  F   F2        1.0  0.91528  0.18127  0.27433  1.0000
  O   O1        1.0  0.92147  0.22001  0.25655  1.0000
  O   O2        1.0  0.93263  0.20766  0.23723  1.0000
  O   O3        1.0  0.90245  0.20310  0.27324  1.0000
  O   O4        1.0  0.89300  0.18300  0.26184  1.0000
  N   N1        1.0  0.91548  0.19384  0.25080  1.0000
  S   S3        1.0  0.86618  0.23311  0.26694  1.0000
  S   S4        1.0  0.87819  0.23124  0.23819  1.0000
  F   F3        1.0  0.87449  0.21903  0.27070  1.0000
  F   F4        1.0  0.87661  0.24494  0.22934  1.0000
  O   O5        1.0  0.85257  0.23162  0.27313  1.0000
  O   O6        1.0  0.87510  0.24480  0.27179  1.0000
  O   O7        1.0  0.89213  0.23237  0.24464  1.0000
  O   O8        1.0  0.87659  0.21979  0.22802  1.0000
  N   N2        1.0  0.86535  0.23123  0.24953  1.0000
  S   S5        1.0  0.90646  0.24496  0.28669  1.0000
  S   S6        1.0  0.90761  0.27499  0.28819  1.0000
  F   F5        1.0  0.89859  0.23950  0.29993  1.0000
  F   F6        1.0  0.89852  0.27807  0.30196  1.0000
  O   O9        1.0  0.92120  0.24454  0.29039  1.0000
  O   O10       1.0  0.90340  0.23535  0.27576  1.0000
  O   O11       1.0  0.92185  0.27356  0.29328  1.0000
  O   O12       1.0  0.90552  0.28704  0.27875  1.0000
  N   N3        1.0  0.90115  0.26026  0.28311  1.0000
  S   S7        1.0  0.96626  0.19096  0.21859  1.0000
  S   S8        1.0  0.98282  0.21088  0.20509  1.0000
  F   F7        1.0  0.96965  0.19668  0.23400  1.0000
  F   F8        1.0  0.97441  0.21536  0.19083  1.0000
  O   O13       1.0  0.96519  0.17550  0.22022  1.0000
  O   O14       1.0  0.95352  0.19802  0.21461  1.0000
  O   O15       1.0  0.97947  0.22109  0.21544  1.0000
  O   O16       1.0  0.99750  0.21151  0.20096  1.0000
  N   N4        1.0  0.97879  0.19489  0.20858  1.0000
  S   S9        1.0  0.86715  0.20876  0.30628  1.0000
  S   S10       1.0  0.87337  0.17944  0.30437  1.0000
  F   F9        1.0  0.87058  0.21372  0.32157  1.0000
  F   F10       1.0  0.88727  0.18320  0.31197  1.0000
  O   O17       1.0  0.85486  0.21629  0.30248  1.0000
  O   O18       1.0  0.87962  0.21226  0.29826  1.0000
  O   O19       1.0  0.86922  0.16590  0.31006  1.0000
  O   O20       1.0  0.87733  0.17794  0.28946  1.0000
  N   N5        1.0  0.86293  0.19258  0.30694  1.0000
  S   S11       1.0  0.92033  0.21000  0.31350  1.0000
  S   S12       1.0  0.94358  0.20967  0.29566  1.0000
  F   F11       1.0  0.91966  0.22530  0.32026  1.0000
  F   F12       1.0  0.94207  0.19473  0.28908  1.0000
  O   O21       1.0  0.91510  0.20135  0.32459  1.0000
  O   O22       1.0  0.91115  0.21078  0.30149  1.0000
  O   O23       1.0  0.93787  0.21863  0.28466  1.0000
  O   O24       1.0  0.95902  0.21140  0.29646  1.0000
  N   N6        1.0  0.93619  0.20701  0.31044  1.0000
  S   S13       1.0  0.86936  0.29184  0.26773  1.0000
  S   S14       1.0  0.88250  0.30771  0.24680  1.0000
  F   F13       1.0  0.87010  0.30011  0.28248  1.0000
  F   F14       1.0  0.87325  0.30077  0.23461  1.0000
  O   O25       1.0  0.87194  0.27727  0.27131  1.0000
  O   O26       1.0  0.85575  0.29486  0.26238  1.0000
  O   O27       1.0  0.87582  0.32037  0.25032  1.0000
  O   O28       1.0  0.89567  0.30959  0.24002  1.0000
  N   N7        1.0  0.88244  0.29676  0.25978  1.0000
  S   S15       1.0  0.90821  0.26657  0.24663  1.0000
  S   S16       1.0  0.93336  0.25522  0.25774  1.0000
  F   F15       1.0  0.91014  0.26303  0.23032  1.0000
  F   F16       1.0  0.94136  0.25640  0.24339  1.0000
  O   O29       1.0  0.91309  0.28054  0.24712  1.0000
  O   O30       1.0  0.89369  0.26593  0.25005  1.0000
  O   O31       1.0  0.93620  0.26800  0.26501  1.0000
  O   O32       1.0  0.93918  0.24370  0.26524  1.0000
  N   N8        1.0  0.91702  0.25416  0.25348  1.0000
  S   S17       1.0  0.81978  0.20092  0.28205  1.0000
  S   S18       1.0  0.81283  0.22492  0.29901  1.0000
  F   F17       1.0  0.81149  0.20003  0.26732  1.0000
  F   F18       1.0  0.81310  0.22021  0.31475  1.0000
  O   O33       1.0  0.82123  0.18623  0.28581  1.0000
  O   O34       1.0  0.83289  0.20818  0.27931  1.0000
  O   O35       1.0  0.82645  0.23127  0.29708  1.0000
  O   O36       1.0  0.80108  0.23401  0.29807  1.0000
  N   N9        1.0  0.80965  0.21001  0.29182  1.0000
  S   S19       1.0  0.98883  0.24899  0.30141  1.0000
  S   S20       1.0  0.95993  0.25735  0.29807  1.0000
  F   F19       1.0  0.99876  0.25247  0.28817  1.0000
  F   F20       1.0  0.95112  0.26094  0.31206  1.0000
  O   O37       1.0  0.98479  0.23428  0.29833  1.0000
  O   O38       1.0  0.99762  0.25072  0.31400  1.0000
  O   O39       1.0  0.95395  0.26807  0.28954  1.0000
  O   O40       1.0  0.95586  0.24337  0.29481  1.0000
  N   N10       1.0  0.97645  0.26034  0.30145  1.0000
  S   S21       1.0  0.93364  0.30725  0.26456  1.0000
  S   S22       1.0  0.94086  0.30174  0.23433  1.0000
  F   F21       1.0  0.93702  0.32299  0.26943  1.0000
  F   F22       1.0  0.93907  0.28468  0.23376  1.0000
  O   O41       1.0  0.93714  0.29884  0.27685  1.0000
  O   O42       1.0  0.91852  0.30791  0.26125  1.0000
  O   O43       1.0  0.92691  0.30677  0.23007  1.0000
  O   O44       1.0  0.95203  0.30558  0.22457  1.0000
  N   N11       1.0  0.94443  0.30548  0.25096  1.0000
  S   S23       1.0  0.87803  0.17406  0.37803  1.0000
  S   S24       1.0  0.87495  0.18628  0.35132  1.0000
  F   F23       1.0  0.88684  0.18629  0.38541  1.0000
  F   F24       1.0  0.87065  0.20142  0.35109  1.0000
  O   O45       1.0  0.88901  0.16450  0.37259  1.0000
  O   O46       1.0  0.86807  0.16801  0.38797  1.0000
  O   O47       1.0  0.89004  0.18680  0.34999  1.0000
  O   O48       1.0  0.86630  0.18029  0.34018  1.0000
  N   N12       1.0  0.86944  0.18154  0.36649  1.0000
  S   S25       1.0  0.79802  0.31971  0.28370  1.0000
  S   S26       1.0  0.81033  0.29414  0.27413  1.0000
  F   F25       1.0  0.80880  0.32861  0.29210  1.0000
  F   F26       1.0  0.80284  0.28898  0.25956  1.0000
  O   O49       1.0  0.79082  0.31074  0.29449  1.0000
  O   O50       1.0  0.78867  0.32921  0.27634  1.0000
  O   O51       1.0  0.82527  0.29057  0.27243  1.0000
  O   O52       1.0  0.80372  0.28506  0.28444  1.0000
  N   N13       1.0  0.80784  0.31064  0.27321  1.0000
  S   S27       1.0  0.86929  0.12781  0.38975  1.0000
  S   S28       1.0  0.88374  0.11025  0.40994  1.0000
  F   F27       1.0  0.85665  0.11888  0.38272  1.0000
  F   F28       1.0  0.87606  0.09557  0.40967  1.0000
  O   O53       1.0  0.87522  0.13557  0.37798  1.0000
  O   O54       1.0  0.86191  0.13578  0.40019  1.0000
  O   O55       1.0  0.89835  0.10773  0.41126  1.0000
  O   O56       1.0  0.87758  0.11689  0.42173  1.0000
  N   N14       1.0  0.88085  0.11630  0.39468  1.0000
  S   S29       1.0  0.83559  0.14360  0.43737  1.0000
  S   S30       1.0  0.82685  0.15903  0.41312  1.0000
  F   F29       1.0  0.84587  0.15200  0.44603  1.0000
  F   F30       1.0  0.81861  0.14641  0.40417  1.0000
  O   O57       1.0  0.84485  0.13549  0.42785  1.0000
  O   O58       1.0  0.82794  0.13515  0.44723  1.0000
  O   O59       1.0  0.81815  0.17172  0.41078  1.0000
  O   O60       1.0  0.84161  0.15963  0.40776  1.0000
  N   N15       1.0  0.82589  0.15503  0.42990  1.0000
  S   S31       1.0  0.87553  0.16785  0.43258  1.0000
  S   S32       1.0  0.88702  0.14533  0.44802  1.0000
  F   F31       1.0  0.86625  0.17220  0.44481  1.0000
  F   F32       1.0  0.88588  0.15016  0.46398  1.0000
  O   O61       1.0  0.86759  0.15935  0.42263  1.0000
  O   O62       1.0  0.87974  0.18055  0.42555  1.0000
  O   O63       1.0  0.87402  0.13811  0.44527  1.0000
  O   O64       1.0  0.90008  0.13763  0.44637  1.0000
  N   N16       1.0  0.88848  0.16027  0.44035  1.0000
  S   S33       1.0  0.80410  0.21644  0.39997  1.0000
  S   S34       1.0  0.77603  0.22645  0.40462  1.0000
  F   F33       1.0  0.81550  0.22908  0.40309  1.0000
  F   F34       1.0  0.76909  0.21521  0.39517  1.0000
  O   O65       1.0  0.80170  0.21637  0.38504  1.0000
  O   O66       1.0  0.81161  0.20467  0.40512  1.0000
  O   O67       1.0  0.76748  0.22726  0.41665  1.0000
  O   O68       1.0  0.77766  0.23945  0.39657  1.0000
  N   N17       1.0  0.79060  0.21945  0.40982  1.0000
