data_image0
_chemical_formula_structural       S2F2O4N
_chemical_formula_sum              "S2 F2 O4 N1"
_cell_length_a       93.5399
_cell_length_b       93.5399
_cell_length_c       93.5399
_cell_angle_alpha    90
_cell_angle_beta     90
_cell_angle_gamma    90

_space_group_name_H-M_alt    "P 1"
_space_group_IT_number       1

loop_
  _space_group_symop_operation_xyz
  'x, y, z'

loop_
  _atom_site_type_symbol
  _atom_site_label
  _atom_site_symmetry_multiplicity
  _atom_site_fract_x
  _atom_site_fract_y
  _atom_site_fract_z
  _atom_site_occupancy
  S   S1        1.0  0.46659  0.84068  0.51701  1.0000
  S   S2        1.0  0.49066  0.83787  0.53361  1.0000
  F   F1        1.0  0.47089  0.85748  0.51639  1.0000
  F   F2        1.0  0.49414  0.82370  0.54129  1.0000
  O   O1        1.0  0.45650  0.83994  0.52795  1.0000
  O   O2        1.0  0.46114  0.83633  0.50326  1.0000
  O   O3        1.0  0.50418  0.84212  0.52757  1.0000
  O   O4        1.0  0.48418  0.84622  0.54456  1.0000
  N   N1        1.0  0.48067  0.83241  0.52142  1.0000
