data_image0
_chemical_formula_structural       LiS2F2O4N
_chemical_formula_sum              "Li1 S2 F2 O4 N1"
_cell_length_a       93.5399
_cell_length_b       93.5399
_cell_length_c       93.5399
_cell_angle_alpha    90
_cell_angle_beta     90
_cell_angle_gamma    90

_space_group_name_H-M_alt    "P 1"
_space_group_IT_number       1

loop_
  _space_group_symop_operation_xyz
  'x, y, z'

loop_
  _atom_site_type_symbol
  _atom_site_label
  _atom_site_symmetry_multiplicity
  _atom_site_fract_x
  _atom_site_fract_y
  _atom_site_fract_z
  _atom_site_occupancy
  Li  Li1       1.0  0.08517  0.56943  0.11627  1.0000
  S   S1        1.0  0.06377  0.57816  0.13898  1.0000
  S   S2        1.0  0.08743  0.56263  0.14703  1.0000
  F   F1        1.0  0.06726  0.59412  0.14168  1.0000
  F   F2        1.0  0.09957  0.57461  0.15046  1.0000
  O   O1        1.0  0.04919  0.57767  0.14316  1.0000
  O   O2        1.0  0.06688  0.57673  0.12368  1.0000
  O   O3        1.0  0.09055  0.55123  0.15680  1.0000
  O   O4        1.0  0.08917  0.55948  0.13207  1.0000
  N   N1        1.0  0.07334  0.57076  0.15034  1.0000
