data_image0
_chemical_formula_structural       LiS2F2O4NS2F2O4N
_chemical_formula_sum              "Li1 S4 F4 O8 N2"
_cell_length_a       93.5399
_cell_length_b       93.5399
_cell_length_c       93.5399
_cell_angle_alpha    90
_cell_angle_beta     90
_cell_angle_gamma    90

_space_group_name_H-M_alt    "P 1"
_space_group_IT_number       1

loop_
  _space_group_symop_operation_xyz
  'x, y, z'

loop_
  _atom_site_type_symbol
  _atom_site_label
  _atom_site_symmetry_multiplicity
  _atom_site_fract_x
  _atom_site_fract_y
  _atom_site_fract_z
  _atom_site_occupancy
  Li  Li1       1.0  0.98293  0.45683  0.47485  1.0000
  S   S1        1.0  0.96017  0.43870  0.47698  1.0000
  S   S2        1.0  0.97424  0.44177  0.45039  1.0000
  F   F1        1.0  0.95037  0.45179  0.48000  1.0000
  F   F2        1.0  0.96790  0.45482  0.44083  1.0000
  O   O1        1.0  0.97244  0.44326  0.48454  1.0000
  O   O2        1.0  0.95294  0.42754  0.48445  1.0000
  O   O3        1.0  0.98589  0.44837  0.45784  1.0000
  O   O4        1.0  0.97733  0.43016  0.44108  1.0000
  N   N1        1.0  0.96168  0.43761  0.46031  1.0000
  S   S3        1.0  0.97633  0.48638  0.48206  1.0000
  S   S4        1.0  0.00554  0.47669  0.48402  1.0000
  F   F3        1.0  0.96829  0.48741  0.49702  1.0000
  F   F4        1.0  0.01231  0.48149  0.46873  1.0000
  O   O5        1.0  0.97296  0.47305  0.47536  1.0000
  O   O6        1.0  0.97242  0.49854  0.47405  1.0000
  O   O7        1.0  0.01713  0.47894  0.49351  1.0000
  O   O8        1.0  0.00145  0.46228  0.48213  1.0000
  N   N2        1.0  0.99270  0.48771  0.48672  1.0000
