data_image0
_chemical_formula_structural       S2F2O4N
_chemical_formula_sum              "S2 F2 O4 N1"
_cell_length_a       93.5399
_cell_length_b       93.5399
_cell_length_c       93.5399
_cell_angle_alpha    90
_cell_angle_beta     90
_cell_angle_gamma    90

_space_group_name_H-M_alt    "P 1"
_space_group_IT_number       1

loop_
  _space_group_symop_operation_xyz
  'x, y, z'

loop_
  _atom_site_type_symbol
  _atom_site_label
  _atom_site_symmetry_multiplicity
  _atom_site_fract_x
  _atom_site_fract_y
  _atom_site_fract_z
  _atom_site_occupancy
  S   S1        1.0  0.63661  0.48056  0.14769  1.0000
  S   S2        1.0  0.66739  0.47952  0.15123  1.0000
  F   F1        1.0  0.63317  0.46912  0.13622  1.0000
  F   F2        1.0  0.66626  0.46391  0.14710  1.0000
  O   O1        1.0  0.62732  0.49132  0.14427  1.0000
  O   O2        1.0  0.63390  0.47410  0.16130  1.0000
  O   O3        1.0  0.68046  0.48428  0.14441  1.0000
  O   O4        1.0  0.66741  0.47880  0.16636  1.0000
  N   N1        1.0  0.65293  0.48574  0.14515  1.0000
