data_image0
_chemical_formula_structural       Li22S2F2O4NS2F2O4NS2F2O4NS2F2O4NS2F2O4NS2F2O4NS2F2O4NS2F2O4NS2F2O4NS2F2O4NS2F2O4NS2F2O4NS2F2O4NS2F2O4NS2F2O4NS2F2O4NS2F2O4NS2F2O4NS2F2O4NS2F2O4NS2F2O4N
_chemical_formula_sum              "Li22 S42 F42 O84 N21"
_cell_length_a       93.5399
_cell_length_b       93.5399
_cell_length_c       93.5399
_cell_angle_alpha    90
_cell_angle_beta     90
_cell_angle_gamma    90

_space_group_name_H-M_alt    "P 1"
_space_group_IT_number       1

loop_
  _space_group_symop_operation_xyz
  'x, y, z'

loop_
  _atom_site_type_symbol
  _atom_site_label
  _atom_site_symmetry_multiplicity
  _atom_site_fract_x
  _atom_site_fract_y
  _atom_site_fract_z
  _atom_site_occupancy
  Li  Li1       1.0  0.54857  0.85694  0.26502  1.0000
  Li  Li2       1.0  0.58559  0.92794  0.22429  1.0000
  Li  Li3       1.0  0.53694  0.86568  0.20970  1.0000
  Li  Li4       1.0  0.55021  0.89431  0.25556  1.0000
  Li  Li5       1.0  0.59465  0.88335  0.20691  1.0000
  Li  Li6       1.0  0.55735  0.92192  0.29082  1.0000
  Li  Li7       1.0  0.50812  0.89083  0.27671  1.0000
  Li  Li8       1.0  0.56333  0.79713  0.27460  1.0000
  Li  Li9       1.0  0.54510  0.82969  0.22901  1.0000
  Li  Li10      1.0  0.56977  0.80740  0.21649  1.0000
  Li  Li11      1.0  0.56027  0.94696  0.25618  1.0000
  Li  Li12      1.0  0.46274  0.89899  0.22149  1.0000
  Li  Li13      1.0  0.50301  0.87608  0.24040  1.0000
  Li  Li14      1.0  0.55313  0.74897  0.24271  1.0000
  Li  Li15      1.0  0.55031  0.69667  0.25049  1.0000
  Li  Li16      1.0  0.58703  0.68347  0.28023  1.0000
  Li  Li17      1.0  0.53622  0.67106  0.26051  1.0000
  Li  Li18      1.0  0.52679  0.67546  0.29497  1.0000
  Li  Li19      1.0  0.50278  0.73465  0.25728  1.0000
  Li  Li20      1.0  0.53441  0.64259  0.20182  1.0000
  Li  Li21      1.0  0.53939  0.67712  0.20392  1.0000
  Li  Li22      1.0  0.51585  0.63583  0.24357  1.0000
  S   S1        1.0  0.57012  0.89761  0.22492  1.0000
  S   S2        1.0  0.55550  0.87430  0.23752  1.0000
  F   F1        1.0  0.55921  0.90405  0.21272  1.0000
  F   F2        1.0  0.56990  0.86569  0.23883  1.0000
  O   O1        1.0  0.57899  0.88756  0.21789  1.0000
  O   O2        1.0  0.57854  0.90954  0.22903  1.0000
  O   O3        1.0  0.54731  0.87330  0.25005  1.0000
  O   O4        1.0  0.54891  0.86999  0.22460  1.0000
  N   N1        1.0  0.56049  0.89053  0.23658  1.0000
  S   S3        1.0  0.55707  0.88234  0.28388  1.0000
  S   S4        1.0  0.53484  0.89797  0.29774  1.0000
  F   F3        1.0  0.56965  0.88322  0.29355  1.0000
  F   F4        1.0  0.53493  0.89642  0.31364  1.0000
  O   O5        1.0  0.55966  0.89334  0.27383  1.0000
  O   O6        1.0  0.55808  0.86824  0.27789  1.0000
  O   O7        1.0  0.54226  0.91061  0.29475  1.0000
  O   O8        1.0  0.51981  0.89786  0.29414  1.0000
  N   N2        1.0  0.54288  0.88416  0.29331  1.0000
  S   S5        1.0  0.57678  0.83099  0.23640  1.0000
  S   S6        1.0  0.57073  0.82812  0.26596  1.0000
  F   F5        1.0  0.58809  0.84364  0.23794  1.0000
  F   F6        1.0  0.58149  0.83804  0.27492  1.0000
  O   O9        1.0  0.56356  0.83814  0.23432  1.0000
  O   O10       1.0  0.58060  0.82184  0.22501  1.0000
  O   O11       1.0  0.55857  0.83773  0.26467  1.0000
  O   O12       1.0  0.56851  0.81620  0.27496  1.0000
  N   N3        1.0  0.57915  0.82482  0.25192  1.0000
  S   S7        1.0  0.51916  0.84903  0.23333  1.0000
  S   S8        1.0  0.51802  0.85933  0.26123  1.0000
  F   F7        1.0  0.50678  0.83753  0.23451  1.0000
  F   F8        1.0  0.50544  0.84980  0.26700  1.0000
  O   O13       1.0  0.53132  0.84002  0.23500  1.0000
  O   O14       1.0  0.51781  0.85413  0.21899  1.0000
  O   O15       1.0  0.53063  0.85168  0.26555  1.0000
  O   O16       1.0  0.51639  0.87268  0.26850  1.0000
  N   N4        1.0  0.51493  0.86023  0.24495  1.0000
  S   S9        1.0  0.57068  0.93580  0.19641  1.0000
  S   S10       1.0  0.59482  0.91725  0.19744  1.0000
  F   F9        1.0  0.55682  0.92546  0.19558  1.0000
  F   F10       1.0  0.60802  0.91973  0.18649  1.0000
  O   O17       1.0  0.56668  0.94854  0.18855  1.0000
  O   O18       1.0  0.57303  0.93684  0.21161  1.0000
  O   O19       1.0  0.60026  0.92288  0.21059  1.0000
  O   O20       1.0  0.59282  0.90180  0.19744  1.0000
  N   N5        1.0  0.58163  0.92560  0.18926  1.0000
  S   S11       1.0  0.58529  0.94805  0.24788  1.0000
  S   S12       1.0  0.58570  0.92677  0.26936  1.0000
  F   F11       1.0  0.59649  0.95761  0.25484  1.0000
  F   F12       1.0  0.58528  0.91215  0.26062  1.0000
  O   O21       1.0  0.57527  0.95798  0.24225  1.0000
  O   O22       1.0  0.59306  0.93952  0.23783  1.0000
  O   O23       1.0  0.60035  0.92847  0.27388  1.0000
  O   O24       1.0  0.57602  0.92384  0.28058  1.0000
  N   N6        1.0  0.57858  0.93855  0.26007  1.0000
  S   S13       1.0  0.56777  0.81895  0.18461  1.0000
  S   S14       1.0  0.54504  0.83499  0.19714  1.0000
  F   F13       1.0  0.56325  0.80881  0.17213  1.0000
  F   F14       1.0  0.53057  0.83091  0.19073  1.0000
  O   O25       1.0  0.56786  0.80895  0.19683  1.0000
  O   O26       1.0  0.58040  0.82502  0.18027  1.0000
  O   O27       1.0  0.54529  0.82654  0.21002  1.0000
  O   O28       1.0  0.54250  0.85008  0.19920  1.0000
  N   N7        1.0  0.55548  0.83108  0.18502  1.0000
  S   S15       1.0  0.51423  0.88896  0.21251  1.0000
  S   S16       1.0  0.48582  0.87790  0.21081  1.0000
  F   F15       1.0  0.51685  0.90501  0.20998  1.0000
  F   F16       1.0  0.48264  0.86493  0.20098  1.0000
  O   O29       1.0  0.52601  0.88284  0.20438  1.0000
  O   O30       1.0  0.51508  0.88792  0.22779  1.0000
  O   O31       1.0  0.48796  0.87155  0.22466  1.0000
  O   O32       1.0  0.47413  0.88820  0.21107  1.0000
  N   N8        1.0  0.50019  0.88518  0.20456  1.0000
  S   S17       1.0  0.53312  0.93404  0.24070  1.0000
  S   S18       1.0  0.52154  0.91320  0.25888  1.0000
  F   F17       1.0  0.53765  0.92633  0.22707  1.0000
  F   F18       1.0  0.52299  0.92223  0.27321  1.0000
  O   O33       1.0  0.54553  0.93423  0.24976  1.0000
  O   O34       1.0  0.52675  0.94703  0.23525  1.0000
  O   O35       1.0  0.50852  0.90611  0.26129  1.0000
  O   O36       1.0  0.53365  0.90416  0.25808  1.0000
  N   N9        1.0  0.52058  0.92456  0.24683  1.0000
  S   S19       1.0  0.56341  0.94505  0.31148  1.0000
  S   S20       1.0  0.55430  0.95406  0.28415  1.0000
  F   F19       1.0  0.54853  0.94722  0.31739  1.0000
  F   F20       1.0  0.54059  0.96202  0.28770  1.0000
  O   O37       1.0  0.57208  0.94946  0.32311  1.0000
  O   O38       1.0  0.56434  0.93014  0.30676  1.0000
  O   O39       1.0  0.55946  0.96106  0.27135  1.0000
  O   O40       1.0  0.55050  0.93971  0.28190  1.0000
  N   N10       1.0  0.56454  0.95533  0.29800  1.0000
  S   S21       1.0  0.47357  0.88470  0.25362  1.0000
  S   S22       1.0  0.47588  0.89292  0.28291  1.0000
  F   F21       1.0  0.46580  0.87018  0.25239  1.0000
  F   F22       1.0  0.47851  0.90932  0.28355  1.0000
  O   O41       1.0  0.48812  0.88065  0.25299  1.0000
  O   O42       1.0  0.46711  0.89128  0.24127  1.0000
  O   O43       1.0  0.46770  0.88961  0.29539  1.0000
  O   O44       1.0  0.48996  0.88721  0.28384  1.0000
  N   N11       1.0  0.46806  0.89074  0.26850  1.0000
  S   S23       1.0  0.55294  0.79681  0.24124  1.0000
  S   S24       1.0  0.56997  0.77628  0.22855  1.0000
  F   F23       1.0  0.53964  0.78614  0.24020  1.0000
  F   F24       1.0  0.58217  0.77606  0.23938  1.0000
  O   O45       1.0  0.54709  0.80978  0.23623  1.0000
  O   O46       1.0  0.55801  0.79770  0.25566  1.0000
  O   O47       1.0  0.56124  0.76416  0.23139  1.0000
  O   O48       1.0  0.57586  0.77581  0.21452  1.0000
  N   N12       1.0  0.56406  0.79153  0.22989  1.0000
  S   S25       1.0  0.53422  0.72240  0.24059  1.0000
  S   S26       1.0  0.52959  0.74383  0.26082  1.0000
  F   F25       1.0  0.52440  0.72153  0.22759  1.0000
  F   F26       1.0  0.54094  0.73877  0.27121  1.0000
  O   O49       1.0  0.53730  0.70778  0.24383  1.0000
  O   O50       1.0  0.54667  0.73008  0.23527  1.0000
  O   O51       1.0  0.53714  0.75424  0.25262  1.0000
  O   O52       1.0  0.51778  0.74873  0.26995  1.0000
  N   N13       1.0  0.52515  0.73048  0.25226  1.0000
  S   S27       1.0  0.58231  0.73800  0.25027  1.0000
  S   S28       1.0  0.57727  0.71185  0.26504  1.0000
  F   F27       1.0  0.58037  0.73263  0.23466  1.0000
  F   F28       1.0  0.57190  0.71968  0.27972  1.0000
  O   O53       1.0  0.59378  0.74822  0.25003  1.0000
  O   O54       1.0  0.56877  0.74394  0.25409  1.0000
  O   O55       1.0  0.56380  0.70954  0.25791  1.0000
  O   O56       1.0  0.58447  0.69961  0.27014  1.0000
  N   N14       1.0  0.58701  0.72337  0.25827  1.0000
  S   S29       1.0  0.53243  0.69881  0.27747  1.0000
  S   S30       1.0  0.50525  0.71090  0.27781  1.0000
  F   F29       1.0  0.54158  0.71270  0.27883  1.0000
  F   F30       1.0  0.49514  0.69816  0.28257  1.0000
  O   O57       1.0  0.54091  0.69031  0.26746  1.0000
  O   O58       1.0  0.53147  0.69372  0.29138  1.0000
  O   O59       1.0  0.50958  0.71843  0.28964  1.0000
  O   O60       1.0  0.49701  0.71914  0.26769  1.0000
  N   N15       1.0  0.51770  0.70333  0.27019  1.0000
  S   S31       1.0  0.55985  0.67043  0.23022  1.0000
  S   S32       1.0  0.54817  0.64232  0.23334  1.0000
  F   F31       1.0  0.57616  0.66826  0.22905  1.0000
  F   F32       1.0  0.55698  0.62918  0.23626  1.0000
  O   O61       1.0  0.55813  0.68303  0.23821  1.0000
  O   O62       1.0  0.55432  0.67100  0.21587  1.0000
  O   O63       1.0  0.53491  0.64059  0.24045  1.0000
  O   O64       1.0  0.54673  0.64270  0.21740  1.0000
  N   N16       1.0  0.55603  0.65659  0.23908  1.0000
  S   S33       1.0  0.56439  0.65907  0.27729  1.0000
  S   S34       1.0  0.55175  0.65527  0.30443  1.0000
  F   F33       1.0  0.57034  0.64532  0.26965  1.0000
  F   F34       1.0  0.55880  0.66201  0.31730  1.0000
  O   O65       1.0  0.57552  0.66899  0.27472  1.0000
  O   O66       1.0  0.55091  0.66083  0.27072  1.0000
  O   O67       1.0  0.54246  0.66664  0.30002  1.0000
  O   O68       1.0  0.54523  0.64222  0.30931  1.0000
  N   N17       1.0  0.56408  0.65367  0.29294  1.0000
  S   S35       1.0  0.49493  0.66520  0.29538  1.0000
  S   S36       1.0  0.51227  0.65339  0.27284  1.0000
  F   F35       1.0  0.48230  0.67520  0.29143  1.0000
  F   F36       1.0  0.52132  0.64256  0.28209  1.0000
  O   O69       1.0  0.50722  0.67375  0.29953  1.0000
  O   O70       1.0  0.48908  0.65741  0.30691  1.0000
  O   O71       1.0  0.51051  0.64482  0.26051  1.0000
  O   O72       1.0  0.52196  0.66486  0.27102  1.0000
  N   N18       1.0  0.49836  0.65629  0.28121  1.0000
  S   S37       1.0  0.51776  0.67418  0.23016  1.0000
  S   S38       1.0  0.50469  0.64948  0.22115  1.0000
  F   F37       1.0  0.50911  0.68778  0.23305  1.0000
  F   F38       1.0  0.49025  0.65396  0.21416  1.0000
  O   O73       1.0  0.52406  0.67753  0.21669  1.0000
  O   O74       1.0  0.52746  0.67614  0.24193  1.0000
  O   O75       1.0  0.51510  0.64794  0.21062  1.0000
  O   O76       1.0  0.50186  0.63659  0.22906  1.0000
  N   N19       1.0  0.50653  0.66179  0.23195  1.0000
  S   S39       1.0  0.53150  0.65992  0.17676  1.0000
  S   S40       1.0  0.52944  0.69054  0.17730  1.0000
  F   F39       1.0  0.51738  0.65287  0.17749  1.0000
  F   F40       1.0  0.51370  0.69320  0.18365  1.0000
  O   O77       1.0  0.53673  0.66004  0.19132  1.0000
  O   O78       1.0  0.54002  0.65156  0.16760  1.0000
  O   O79       1.0  0.53805  0.69147  0.18969  1.0000
  O   O80       1.0  0.53159  0.70218  0.16810  1.0000
  N   N20       1.0  0.52804  0.67542  0.17006  1.0000
  S   S41       1.0  0.52460  0.60528  0.23167  1.0000
  S   S42       1.0  0.53466  0.61228  0.20370  1.0000
  F   F41       1.0  0.53911  0.59840  0.23770  1.0000
  F   F42       1.0  0.54972  0.60610  0.20543  1.0000
  O   O81       1.0  0.51556  0.59346  0.22862  1.0000
  O   O82       1.0  0.51991  0.61409  0.24330  1.0000
  O   O83       1.0  0.52701  0.60050  0.19858  1.0000
  O   O84       1.0  0.53518  0.62436  0.19484  1.0000
  N   N21       1.0  0.53038  0.61560  0.21966  1.0000
