data_image0
_chemical_formula_structural       Li30S2F2O4NS2F2O4NS2F2O4NS2F2O4NS2F2O4NS2F2O4NS2F2O4NS2F2O4NS2F2O4NS2F2O4NS2F2O4NS2F2O4NS2F2O4NS2F2O4NS2F2O4NS2F2O4NS2F2O4NS2F2O4NS2F2O4NS2F2O4NS2F2O4NS2F2O4NS2F2O4NS2F2O4NS2F2O4NS2F2O4NS2F2O4NS2F2O4NS2F2O4N
_chemical_formula_sum              "Li30 S58 F58 O116 N29"
_cell_length_a       93.5399
_cell_length_b       93.5399
_cell_length_c       93.5399
_cell_angle_alpha    90
_cell_angle_beta     90
_cell_angle_gamma    90

_space_group_name_H-M_alt    "P 1"
_space_group_IT_number       1

loop_
  _space_group_symop_operation_xyz
  'x, y, z'

loop_
  _atom_site_type_symbol
  _atom_site_label
  _atom_site_symmetry_multiplicity
  _atom_site_fract_x
  _atom_site_fract_y
  _atom_site_fract_z
  _atom_site_occupancy
  Li  Li1       1.0  0.51356  0.62780  0.49296  1.0000
  Li  Li2       1.0  0.51110  0.68480  0.50236  1.0000
  Li  Li3       1.0  0.55495  0.66352  0.56030  1.0000
  Li  Li4       1.0  0.54097  0.69483  0.53451  1.0000
  Li  Li5       1.0  0.49041  0.58642  0.50671  1.0000
  Li  Li6       1.0  0.55245  0.62466  0.53469  1.0000
  Li  Li7       1.0  0.48776  0.69545  0.48557  1.0000
  Li  Li8       1.0  0.43843  0.63709  0.51965  1.0000
  Li  Li9       1.0  0.45739  0.61783  0.53523  1.0000
  Li  Li10      1.0  0.47417  0.64473  0.57194  1.0000
  Li  Li11      1.0  0.39989  0.62647  0.55693  1.0000
  Li  Li12      1.0  0.39087  0.70966  0.56734  1.0000
  Li  Li13      1.0  0.33140  0.75061  0.57975  1.0000
  Li  Li14      1.0  0.37646  0.76908  0.57870  1.0000
  Li  Li15      1.0  0.33374  0.72103  0.56152  1.0000
  Li  Li16      1.0  0.36557  0.74549  0.53227  1.0000
  Li  Li17      1.0  0.38664  0.76320  0.55323  1.0000
  Li  Li18      1.0  0.43435  0.73466  0.53772  1.0000
  Li  Li19      1.0  0.31144  0.77563  0.57686  1.0000
  Li  Li20      1.0  0.27619  0.78364  0.54845  1.0000
  Li  Li21      1.0  0.28737  0.72189  0.58088  1.0000
  Li  Li22      1.0  0.26156  0.74442  0.56475  1.0000
  Li  Li23      1.0  0.41083  0.79612  0.52645  1.0000
  Li  Li24      1.0  0.32738  0.66799  0.58096  1.0000
  Li  Li25      1.0  0.22851  0.75302  0.56829  1.0000
  Li  Li26      1.0  0.21092  0.69799  0.54805  1.0000
  Li  Li27      1.0  0.20312  0.72848  0.49694  1.0000
  Li  Li28      1.0  0.17697  0.65163  0.49722  1.0000
  Li  Li29      1.0  0.15484  0.61045  0.51310  1.0000
  Li  Li30      1.0  0.19994  0.60981  0.48121  1.0000
  S   S1        1.0  0.52812  0.66129  0.54032  1.0000
  S   S2        1.0  0.52361  0.65398  0.51205  1.0000
  F   F1        1.0  0.51231  0.66169  0.54601  1.0000
  F   F2        1.0  0.53821  0.65295  0.50381  1.0000
  O   O1        1.0  0.53118  0.67586  0.53617  1.0000
  O   O2        1.0  0.53699  0.65601  0.55112  1.0000
  O   O3        1.0  0.51525  0.64402  0.50470  1.0000
  O   O4        1.0  0.51839  0.66833  0.51005  1.0000
  N   N1        1.0  0.52701  0.65047  0.52787  1.0000
  S   S3        1.0  0.53885  0.61188  0.50501  1.0000
  S   S4        1.0  0.51697  0.59543  0.49439  1.0000
  F   F3        1.0  0.55353  0.60596  0.49895  1.0000
  F   F4        1.0  0.52766  0.58853  0.48371  1.0000
  O   O5        1.0  0.54172  0.61729  0.51895  1.0000
  O   O6        1.0  0.53455  0.62262  0.49529  1.0000
  O   O7        1.0  0.50697  0.58393  0.49686  1.0000
  O   O8        1.0  0.51052  0.60771  0.48756  1.0000
  N   N2        1.0  0.52716  0.59921  0.50642  1.0000
  S   S5        1.0  0.51143  0.67586  0.47292  1.0000
  S   S6        1.0  0.50292  0.64704  0.46550  1.0000
  F   F5        1.0  0.51395  0.68733  0.46122  1.0000
  F   F6        1.0  0.51105  0.64155  0.45143  1.0000
  O   O9        1.0  0.52504  0.67020  0.47709  1.0000
  O   O10       1.0  0.50328  0.68374  0.48336  1.0000
  O   O11       1.0  0.50992  0.64035  0.47701  1.0000
  O   O12       1.0  0.48871  0.64104  0.46376  1.0000
  N   N3        1.0  0.50268  0.66461  0.46447  1.0000
  S   S7        1.0  0.52918  0.71212  0.50971  1.0000
  S   S8        1.0  0.50232  0.72588  0.50357  1.0000
  F   F7        1.0  0.53999  0.72008  0.49963  1.0000
  F   F8        1.0  0.50270  0.74135  0.49744  1.0000
  O   O13       1.0  0.52476  0.69956  0.50154  1.0000
  O   O14       1.0  0.53639  0.70895  0.52282  1.0000
  O   O15       1.0  0.49921  0.71686  0.49159  1.0000
  O   O16       1.0  0.49084  0.72644  0.51371  1.0000
  N   N4        1.0  0.51723  0.72382  0.51178  1.0000
  S   S9        1.0  0.54092  0.67051  0.58371  1.0000
  S   S10       1.0  0.53204  0.69286  0.56665  1.0000
  F   F9        1.0  0.55053  0.67666  0.59568  1.0000
  F   F10       1.0  0.51817  0.68455  0.56126  1.0000
  O   O17       1.0  0.54786  0.65783  0.57996  1.0000
  O   O18       1.0  0.52738  0.66932  0.58956  1.0000
  O   O19       1.0  0.52827  0.70113  0.57840  1.0000
  O   O20       1.0  0.53580  0.70134  0.55454  1.0000
  N   N5        1.0  0.54310  0.68125  0.57083  1.0000
  S   S11       1.0  0.57076  0.65047  0.53869  1.0000
  S   S12       1.0  0.57042  0.68022  0.53796  1.0000
  F   F11       1.0  0.58664  0.64570  0.53588  1.0000
  F   F12       1.0  0.58631  0.68465  0.53584  1.0000
  O   O21       1.0  0.56208  0.64035  0.53153  1.0000
  O   O22       1.0  0.56908  0.65032  0.55403  1.0000
  O   O23       1.0  0.56141  0.69062  0.53162  1.0000
  O   O24       1.0  0.56809  0.67928  0.55278  1.0000
  N   N6        1.0  0.56985  0.66502  0.53077  1.0000
  S   S13       1.0  0.46032  0.62738  0.49351  1.0000
  S   S14       1.0  0.48128  0.61643  0.51282  1.0000
  F   F13       1.0  0.46953  0.63957  0.48685  1.0000
  F   F14       1.0  0.49132  0.62962  0.51220  1.0000
  O   O25       1.0  0.45421  0.63474  0.50557  1.0000
  O   O26       1.0  0.45037  0.62279  0.48342  1.0000
  O   O27       1.0  0.47388  0.61783  0.52648  1.0000
  O   O28       1.0  0.49146  0.60474  0.51306  1.0000
  N   N7        1.0  0.47211  0.61607  0.49836  1.0000
  S   S15       1.0  0.46213  0.64919  0.53939  1.0000
  S   S16       1.0  0.44066  0.66772  0.52929  1.0000
  F   F15       1.0  0.47321  0.64782  0.52728  1.0000
  F   F16       1.0  0.43043  0.66954  0.54318  1.0000
  O   O29       1.0  0.45259  0.63757  0.53632  1.0000
  O   O30       1.0  0.47212  0.64863  0.55130  1.0000
  O   O31       1.0  0.44123  0.68156  0.52330  1.0000
  O   O32       1.0  0.43525  0.65636  0.52074  1.0000
  N   N8        1.0  0.45557  0.66457  0.53633  1.0000
  S   S17       1.0  0.41465  0.61202  0.52869  1.0000
  S   S18       1.0  0.43747  0.59155  0.52759  1.0000
  F   F17       1.0  0.40423  0.60908  0.51547  1.0000
  F   F18       1.0  0.44399  0.58754  0.54265  1.0000
  O   O33       1.0  0.42410  0.62360  0.52492  1.0000
  O   O34       1.0  0.40552  0.61440  0.54007  1.0000
  O   O35       1.0  0.43756  0.57866  0.51900  1.0000
  O   O36       1.0  0.44675  0.60271  0.52348  1.0000
  N   N9        1.0  0.42143  0.59645  0.53105  1.0000
  S   S19       1.0  0.46706  0.61133  0.56736  1.0000
  S   S20       1.0  0.45845  0.58556  0.57979  1.0000
  F   F19       1.0  0.48143  0.60501  0.56512  1.0000
  F   F20       1.0  0.44364  0.58517  0.57273  1.0000
  O   O37       1.0  0.46911  0.62557  0.57174  1.0000
  O   O38       1.0  0.45869  0.60985  0.55473  1.0000
  O   O39       1.0  0.46801  0.57709  0.57106  1.0000
  O   O40       1.0  0.45695  0.58025  0.59355  1.0000
  N   N10       1.0  0.46189  0.60216  0.57938  1.0000
  S   S21       1.0  0.40553  0.67930  0.57193  1.0000
  S   S22       1.0  0.39351  0.65537  0.55740  1.0000
  F   F21       1.0  0.39575  0.67251  0.58335  1.0000
  F   F22       1.0  0.38019  0.66136  0.54931  1.0000
  O   O41       1.0  0.40047  0.69323  0.57074  1.0000
  O   O42       1.0  0.42032  0.67927  0.57654  1.0000
  O   O43       1.0  0.39903  0.64405  0.54867  1.0000
  O   O44       1.0  0.38854  0.64932  0.57060  1.0000
  N   N11       1.0  0.40340  0.66873  0.55837  1.0000
  S   S23       1.0  0.35970  0.74625  0.59716  1.0000
  S   S24       1.0  0.36086  0.71921  0.58439  1.0000
  F   F23       1.0  0.35909  0.74865  0.61330  1.0000
  F   F24       1.0  0.35224  0.70959  0.59528  1.0000
  O   O45       1.0  0.34532  0.74831  0.59336  1.0000
  O   O46       1.0  0.36870  0.75767  0.59208  1.0000
  O   O47       1.0  0.34965  0.72294  0.57463  1.0000
  O   O48       1.0  0.37228  0.71019  0.57894  1.0000
  N   N12       1.0  0.36638  0.73155  0.59438  1.0000
  S   S25       1.0  0.37718  0.71582  0.53803  1.0000
  S   S26       1.0  0.34733  0.71911  0.53568  1.0000
  F   F25       1.0  0.38260  0.71299  0.52225  1.0000
  F   F26       1.0  0.34401  0.71388  0.52010  1.0000
  O   O49       1.0  0.38687  0.70790  0.54696  1.0000
  O   O50       1.0  0.37833  0.73092  0.53923  1.0000
  O   O51       1.0  0.33453  0.71479  0.54328  1.0000
  O   O52       1.0  0.34937  0.73427  0.53512  1.0000
  N   N13       1.0  0.36156  0.70977  0.53921  1.0000
  S   S27       1.0  0.40012  0.74089  0.57488  1.0000
  S   S28       1.0  0.41992  0.75644  0.55784  1.0000
  F   F27       1.0  0.40244  0.74674  0.59067  1.0000
  F   F28       1.0  0.42750  0.76713  0.56794  1.0000
  O   O53       1.0  0.39788  0.72606  0.57649  1.0000
  O   O54       1.0  0.38907  0.74939  0.56926  1.0000
  O   O55       1.0  0.43106  0.75254  0.54816  1.0000
  O   O56       1.0  0.40847  0.76520  0.55269  1.0000
  N   N14       1.0  0.41582  0.74365  0.56786  1.0000
  S   S29       1.0  0.35136  0.76272  0.55875  1.0000
  S   S30       1.0  0.34363  0.78447  0.57774  1.0000
  F   F29       1.0  0.34268  0.77112  0.54772  1.0000
  F   F30       1.0  0.33805  0.79601  0.56765  1.0000
  O   O57       1.0  0.34337  0.75099  0.56384  1.0000
  O   O58       1.0  0.36429  0.75883  0.55142  1.0000
  O   O59       1.0  0.33064  0.77756  0.58211  1.0000
  O   O60       1.0  0.35117  0.79252  0.58864  1.0000
  N   N15       1.0  0.35465  0.77516  0.56942  1.0000
  S   S31       1.0  0.29734  0.75333  0.58842  1.0000
  S   S32       1.0  0.27673  0.77103  0.57723  1.0000
  F   F31       1.0  0.29431  0.75536  0.60481  1.0000
  F   F32       1.0  0.27052  0.77660  0.59208  1.0000
  O   O61       1.0  0.31246  0.75198  0.58856  1.0000
  O   O62       1.0  0.28977  0.74073  0.58437  1.0000
  O   O63       1.0  0.27360  0.78305  0.56811  1.0000
  O   O64       1.0  0.26818  0.75916  0.57384  1.0000
  N   N16       1.0  0.29260  0.76774  0.58096  1.0000
  S   S33       1.0  0.39015  0.79401  0.55609  1.0000
  S   S34       1.0  0.39950  0.79286  0.58400  1.0000
  F   F33       1.0  0.37801  0.80604  0.55773  1.0000
  F   F34       1.0  0.39397  0.80726  0.59075  1.0000
  O   O65       1.0  0.38305  0.78062  0.55639  1.0000
  O   O66       1.0  0.39732  0.79806  0.54291  1.0000
  O   O67       1.0  0.38899  0.78278  0.58760  1.0000
  O   O68       1.0  0.41332  0.79121  0.59011  1.0000
  N   N17       1.0  0.40060  0.79637  0.56858  1.0000
  S   S35       1.0  0.28659  0.73415  0.54926  1.0000
  S   S36       1.0  0.31308  0.74831  0.55276  1.0000
  F   F35       1.0  0.28902  0.72596  0.53444  1.0000
  F   F36       1.0  0.32123  0.75101  0.53806  1.0000
  O   O69       1.0  0.27242  0.74011  0.54949  1.0000
  O   O70       1.0  0.28897  0.72382  0.55973  1.0000
  O   O71       1.0  0.31622  0.76020  0.56131  1.0000
  O   O72       1.0  0.31873  0.73550  0.55869  1.0000
  N   N18       1.0  0.29691  0.74712  0.54840  1.0000
  S   S37       1.0  0.31234  0.70061  0.57904  1.0000
  S   S38       1.0  0.30734  0.67559  0.59662  1.0000
  F   F37       1.0  0.30672  0.69320  0.56579  1.0000
  F   F38       1.0  0.30995  0.67861  0.61278  1.0000
  O   O73       1.0  0.32450  0.70883  0.57518  1.0000
  O   O74       1.0  0.30024  0.70915  0.58363  1.0000
  O   O75       1.0  0.29247  0.67745  0.59369  1.0000
  O   O76       1.0  0.31318  0.66173  0.59383  1.0000
  N   N19       1.0  0.31727  0.68668  0.58814  1.0000
  S   S39       1.0  0.38100  0.74920  0.50235  1.0000
  S   S40       1.0  0.39863  0.76554  0.51957  1.0000
  F   F39       1.0  0.39014  0.73490  0.50155  1.0000
  F   F40       1.0  0.40945  0.75477  0.52331  1.0000
  O   O77       1.0  0.37449  0.74973  0.48845  1.0000
  O   O78       1.0  0.37135  0.74611  0.51422  1.0000
  O   O79       1.0  0.40709  0.77840  0.51709  1.0000
  O   O80       1.0  0.38807  0.76542  0.53074  1.0000
  N   N20       1.0  0.39244  0.76057  0.50507  1.0000
  S   S41       1.0  0.28235  0.81269  0.54218  1.0000
  S   S42       1.0  0.30364  0.79212  0.54739  1.0000
  F   F41       1.0  0.27962  0.81633  0.52579  1.0000
  F   F42       1.0  0.31819  0.79075  0.53886  1.0000
  O   O81       1.0  0.27932  0.82556  0.54981  1.0000
  O   O82       1.0  0.27223  0.80170  0.54539  1.0000
  O   O83       1.0  0.30649  0.79090  0.56262  1.0000
  O   O84       1.0  0.29427  0.78064  0.54233  1.0000
  N   N21       1.0  0.29832  0.80785  0.54271  1.0000
  S   S43       1.0  0.24793  0.76759  0.54305  1.0000
  S   S44       1.0  0.22989  0.78554  0.55887  1.0000
  F   F43       1.0  0.24438  0.76185  0.52824  1.0000
  F   F44       1.0  0.24076  0.79045  0.57017  1.0000
  O   O85       1.0  0.24381  0.75577  0.55207  1.0000
  O   O86       1.0  0.26205  0.77143  0.54252  1.0000
  O   O87       1.0  0.22034  0.79735  0.55672  1.0000
  O   O88       1.0  0.22311  0.77315  0.56539  1.0000
  N   N22       1.0  0.23891  0.78209  0.54546  1.0000
  S   S45       1.0  0.25330  0.72287  0.58660  1.0000
  S   S46       1.0  0.23859  0.74510  0.60081  1.0000
  F   F45       1.0  0.24425  0.70894  0.58582  1.0000
  F   F46       1.0  0.24887  0.75450  0.60890  1.0000
  O   O89       1.0  0.26743  0.71781  0.58858  1.0000
  O   O90       1.0  0.25195  0.72942  0.57268  1.0000
  O   O91       1.0  0.23733  0.75239  0.58724  1.0000
  O   O92       1.0  0.22590  0.74438  0.61000  1.0000
  N   N23       1.0  0.24598  0.73043  0.59973  1.0000
  S   S47       1.0  0.20710  0.72851  0.55604  1.0000
  S   S48       1.0  0.19772  0.71955  0.52836  1.0000
  F   F47       1.0  0.19266  0.72969  0.56430  1.0000
  F   F48       1.0  0.18137  0.71752  0.53109  1.0000
  O   O93       1.0  0.21680  0.74000  0.56016  1.0000
  O   O94       1.0  0.21381  0.71511  0.55892  1.0000
  O   O95       1.0  0.19738  0.72459  0.51431  1.0000
  O   O96       1.0  0.20312  0.70508  0.52971  1.0000
  N   N24       1.0  0.20212  0.73093  0.54025  1.0000
  S   S49       1.0  0.19915  0.70439  0.47425  1.0000
  S   S50       1.0  0.18546  0.68686  0.49542  1.0000
  F   F49       1.0  0.21597  0.70219  0.47345  1.0000
  F   F50       1.0  0.19738  0.68667  0.50777  1.0000
  O   O97       1.0  0.19670  0.71745  0.48219  1.0000
  O   O98       1.0  0.19536  0.70535  0.45987  1.0000
  O   O99       1.0  0.17497  0.69760  0.49843  1.0000
  O   O100      1.0  0.18146  0.67213  0.49558  1.0000
  N   N25       1.0  0.19365  0.68986  0.48135  1.0000
  S   S51       1.0  0.15441  0.63176  0.48940  1.0000
  S   S52       1.0  0.17720  0.63271  0.47037  1.0000
  F   F51       1.0  0.14311  0.63786  0.48006  1.0000
  F   F52       1.0  0.17169  0.63310  0.45433  1.0000
  O   O101      1.0  0.15988  0.64349  0.49683  1.0000
  O   O102      1.0  0.14747  0.62233  0.49883  1.0000
  O   O103      1.0  0.17817  0.64794  0.47338  1.0000
  O   O104      1.0  0.19029  0.62480  0.47025  1.0000
  N   N26       1.0  0.16524  0.62485  0.47930  1.0000
  S   S53       1.0  0.18714  0.62817  0.51519  1.0000
  S   S54       1.0  0.18566  0.59998  0.50575  1.0000
  F   F53       1.0  0.19585  0.63146  0.52894  1.0000
  F   F54       1.0  0.19019  0.58850  0.51614  1.0000
  O   O105      1.0  0.17275  0.62760  0.52088  1.0000
  O   O106      1.0  0.19013  0.63972  0.50640  1.0000
  O   O107      1.0  0.17023  0.59960  0.50575  1.0000
  O   O108      1.0  0.19223  0.59599  0.49297  1.0000
  N   N27       1.0  0.19333  0.61387  0.51022  1.0000
  S   S55       1.0  0.14171  0.60722  0.54547  1.0000
  S   S56       1.0  0.13905  0.59031  0.57025  1.0000
  F   F55       1.0  0.14655  0.61999  0.55476  1.0000
  F   F56       1.0  0.13250  0.57601  0.56776  1.0000
  O   O109      1.0  0.12747  0.61006  0.54188  1.0000
  O   O110      1.0  0.15014  0.60759  0.53232  1.0000
  O   O111      1.0  0.14974  0.58600  0.58029  1.0000
  O   O112      1.0  0.12735  0.59865  0.57535  1.0000
  N   N28       1.0  0.14589  0.59400  0.55502  1.0000
  S   S57       1.0  0.23335  0.60315  0.48290  1.0000
  S   S58       1.0  0.21382  0.58575  0.46608  1.0000
  F   F57       1.0  0.24351  0.61278  0.47333  1.0000
  F   F58       1.0  0.21989  0.58142  0.45076  1.0000
  O   O113      1.0  0.24233  0.60046  0.49430  1.0000
  O   O114      1.0  0.22183  0.61279  0.48657  1.0000
  O   O115      1.0  0.20672  0.57346  0.47121  1.0000
  O   O116      1.0  0.20490  0.59765  0.46478  1.0000
  N   N29       1.0  0.22787  0.58912  0.47464  1.0000
