data_image0
_chemical_formula_structural       Li18S2F2O4NS2F2O4NS2F2O4NS2F2O4NS2F2O4NS2F2O4NS2F2O4NS2F2O4NS2F2O4NS2F2O4NS2F2O4NS2F2O4NS2F2O4NS2F2O4NS2F2O4NS2F2O4N
_chemical_formula_sum              "Li18 S32 F32 O64 N16"
_cell_length_a       93.5399
_cell_length_b       93.5399
_cell_length_c       93.5399
_cell_angle_alpha    90
_cell_angle_beta     90
_cell_angle_gamma    90

_space_group_name_H-M_alt    "P 1"
_space_group_IT_number       1

loop_
  _space_group_symop_operation_xyz
  'x, y, z'

loop_
  _atom_site_type_symbol
  _atom_site_label
  _atom_site_symmetry_multiplicity
  _atom_site_fract_x
  _atom_site_fract_y
  _atom_site_fract_z
  _atom_site_occupancy
  Li  Li1       1.0  0.44901  0.28657  0.51684  1.0000
  Li  Li2       1.0  0.41585  0.28135  0.57115  1.0000
  Li  Li3       1.0  0.42414  0.25310  0.49595  1.0000
  Li  Li4       1.0  0.37793  0.29631  0.54725  1.0000
  Li  Li5       1.0  0.38534  0.30111  0.47293  1.0000
  Li  Li6       1.0  0.42250  0.32829  0.45703  1.0000
  Li  Li7       1.0  0.44944  0.30332  0.47673  1.0000
  Li  Li8       1.0  0.47360  0.34462  0.47469  1.0000
  Li  Li9       1.0  0.37407  0.23806  0.55245  1.0000
  Li  Li10      1.0  0.39479  0.27340  0.51736  1.0000
  Li  Li11      1.0  0.38651  0.34659  0.58681  1.0000
  Li  Li12      1.0  0.32575  0.29199  0.51398  1.0000
  Li  Li13      1.0  0.46112  0.36843  0.44753  1.0000
  Li  Li14      1.0  0.41750  0.37069  0.44451  1.0000
  Li  Li15      1.0  0.26386  0.27005  0.49340  1.0000
  Li  Li16      1.0  0.29307  0.26850  0.53127  1.0000
  Li  Li17      1.0  0.28951  0.31106  0.55729  1.0000
  Li  Li18      1.0  0.39967  0.40555  0.45174  1.0000
  S   S1        1.0  0.42587  0.26498  0.52765  1.0000
  S   S2        1.0  0.40899  0.28705  0.53772  1.0000
  F   F1        1.0  0.42341  0.25523  0.54061  1.0000
  F   F2        1.0  0.41756  0.29975  0.53182  1.0000
  O   O1        1.0  0.43902  0.27257  0.52866  1.0000
  O   O2        1.0  0.42598  0.25483  0.51617  1.0000
  O   O3        1.0  0.39437  0.29237  0.53584  1.0000
  O   O4        1.0  0.41364  0.28523  0.55217  1.0000
  N   N1        1.0  0.41228  0.27451  0.52628  1.0000
  S   S3        1.0  0.41675  0.29520  0.46528  1.0000
  S   S4        1.0  0.42530  0.28555  0.49168  1.0000
  F   F3        1.0  0.42314  0.28388  0.45481  1.0000
  F   F4        1.0  0.41128  0.29118  0.49901  1.0000
  O   O5        1.0  0.41697  0.30856  0.45793  1.0000
  O   O6        1.0  0.40306  0.29031  0.46962  1.0000
  O   O7        1.0  0.42242  0.27122  0.48763  1.0000
  O   O8        1.0  0.43561  0.28781  0.50252  1.0000
  N   N2        1.0  0.42722  0.29582  0.47803  1.0000
  S   S5        1.0  0.46571  0.32165  0.49848  1.0000
  S   S6        1.0  0.47577  0.30537  0.52209  1.0000
  F   F5        1.0  0.45421  0.33293  0.50256  1.0000
  F   F6        1.0  0.48357  0.29397  0.51361  1.0000
  O   O9        1.0  0.45728  0.31009  0.49370  1.0000
  O   O10       1.0  0.47449  0.32903  0.48807  1.0000
  O   O11       1.0  0.48570  0.30835  0.53343  1.0000
  O   O12       1.0  0.46245  0.29882  0.52544  1.0000
  N   N3        1.0  0.47463  0.31906  0.51229  1.0000
  S   S7        1.0  0.46568  0.27395  0.48822  1.0000
  S   S8        1.0  0.45684  0.24487  0.48435  1.0000
  F   F7        1.0  0.48192  0.27661  0.48654  1.0000
  F   F8        1.0  0.46494  0.23928  0.49834  1.0000
  O   O13       1.0  0.46202  0.27364  0.50289  1.0000
  O   O14       1.0  0.45999  0.28566  0.48005  1.0000
  O   O15       1.0  0.44244  0.24564  0.48846  1.0000
  O   O16       1.0  0.45873  0.23351  0.47411  1.0000
  N   N4        1.0  0.46408  0.25986  0.47960  1.0000
  S   S9        1.0  0.38720  0.28381  0.59030  1.0000
  S   S10       1.0  0.37246  0.26871  0.56874  1.0000
  F   F9        1.0  0.38914  0.28081  0.60631  1.0000
  F   F10       1.0  0.35626  0.27063  0.57307  1.0000
  O   O17       1.0  0.37710  0.29557  0.58985  1.0000
  O   O18       1.0  0.40141  0.28595  0.58487  1.0000
  O   O19       1.0  0.37576  0.28017  0.55937  1.0000
  O   O20       1.0  0.37359  0.25434  0.56282  1.0000
  N   N5        1.0  0.38008  0.26995  0.58389  1.0000
  S   S11       1.0  0.38201  0.24436  0.52249  1.0000
  S   S12       1.0  0.39698  0.24464  0.49674  1.0000
  F   F11       1.0  0.36674  0.24391  0.51726  1.0000
  F   F12       1.0  0.38502  0.23937  0.48516  1.0000
  O   O21       1.0  0.38453  0.25935  0.52621  1.0000
  O   O22       1.0  0.38167  0.23542  0.53513  1.0000
  O   O23       1.0  0.39609  0.25980  0.49740  1.0000
  O   O24       1.0  0.41045  0.23916  0.49170  1.0000
  N   N6        1.0  0.39207  0.23757  0.51106  1.0000
  S   S13       1.0  0.35909  0.34531  0.57207  1.0000
  S   S14       1.0  0.38191  0.32849  0.56117  1.0000
  F   F13       1.0  0.35256  0.33763  0.58612  1.0000
  F   F14       1.0  0.38607  0.33834  0.54783  1.0000
  O   O25       1.0  0.34691  0.35118  0.56532  1.0000
  O   O26       1.0  0.37028  0.35440  0.57687  1.0000
  O   O27       1.0  0.39032  0.33349  0.57251  1.0000
  O   O28       1.0  0.38383  0.31399  0.55602  1.0000
  N   N7        1.0  0.36555  0.33179  0.56372  1.0000
  S   S15       1.0  0.36778  0.28843  0.50118  1.0000
  S   S16       1.0  0.35171  0.30117  0.52400  1.0000
  F   F15       1.0  0.36185  0.27372  0.49690  1.0000
  F   F16       1.0  0.35356  0.31791  0.52132  1.0000
  O   O29       1.0  0.37986  0.28530  0.50980  1.0000
  O   O30       1.0  0.37155  0.29494  0.48758  1.0000
  O   O31       1.0  0.33675  0.30041  0.52799  1.0000
  O   O32       1.0  0.36179  0.29782  0.53517  1.0000
  N   N8        1.0  0.35408  0.29443  0.50893  1.0000
  S   S17       1.0  0.44962  0.36179  0.47868  1.0000
  S   S18       1.0  0.42058  0.35422  0.47585  1.0000
  F   F17       1.0  0.44890  0.37531  0.48708  1.0000
  F   F18       1.0  0.40930  0.35993  0.48708  1.0000
  O   O33       1.0  0.45086  0.36644  0.46404  1.0000
  O   O34       1.0  0.46178  0.35534  0.48487  1.0000
  O   O35       1.0  0.41815  0.36427  0.46403  1.0000
  O   O36       1.0  0.41792  0.33971  0.47222  1.0000
  N   N9        1.0  0.43517  0.35506  0.48320  1.0000
  S   S19       1.0  0.45182  0.32635  0.45282  1.0000
  S   S20       1.0  0.44059  0.34788  0.43403  1.0000
  F   F19       1.0  0.45874  0.31635  0.44136  1.0000
  F   F20       1.0  0.43923  0.34134  0.41896  1.0000
  O   O37       1.0  0.44620  0.31743  0.46351  1.0000
  O   O38       1.0  0.46293  0.33512  0.45882  1.0000
  O   O39       1.0  0.42841  0.35721  0.43542  1.0000
  O   O40       1.0  0.45402  0.35483  0.43322  1.0000
  N   N10       1.0  0.43946  0.33425  0.44450  1.0000
  S   S21       1.0  0.49061  0.37187  0.47296  1.0000
  S   S22       1.0  0.49240  0.37873  0.44391  1.0000
  F   F21       1.0  0.47827  0.38181  0.47877  1.0000
  F   F22       1.0  0.50401  0.36888  0.43786  1.0000
  O   O41       1.0  0.50028  0.37090  0.48490  1.0000
  O   O42       1.0  0.48479  0.35831  0.46906  1.0000
  O   O43       1.0  0.47949  0.37120  0.44295  1.0000
  O   O44       1.0  0.49378  0.39103  0.43496  1.0000
  N   N11       1.0  0.49653  0.38116  0.46046  1.0000
  S   S23       1.0  0.31581  0.26378  0.50959  1.0000
  S   S24       1.0  0.28883  0.25122  0.50798  1.0000
  F   F23       1.0  0.32438  0.24969  0.51068  1.0000
  F   F24       1.0  0.28974  0.23564  0.50227  1.0000
  O   O45       1.0  0.31266  0.26869  0.52376  1.0000
  O   O46       1.0  0.32490  0.27345  0.50248  1.0000
  O   O47       1.0  0.28790  0.25045  0.52305  1.0000
  O   O48       1.0  0.27585  0.25684  0.50226  1.0000
  N   N12       1.0  0.30206  0.25879  0.50038  1.0000
  S   S25       1.0  0.27314  0.29188  0.51599  1.0000
  S   S26       1.0  0.29750  0.30863  0.52173  1.0000
  F   F25       1.0  0.26182  0.29734  0.52667  1.0000
  F   F26       1.0  0.30144  0.32376  0.51632  1.0000
  O   O49       1.0  0.28015  0.28079  0.52370  1.0000
  O   O50       1.0  0.26633  0.28753  0.50316  1.0000
  O   O51       1.0  0.29512  0.31013  0.53704  1.0000
  O   O52       1.0  0.30921  0.30018  0.51672  1.0000
  N   N13       1.0  0.28357  0.30457  0.51353  1.0000
  S   S27       1.0  0.42916  0.42148  0.43960  1.0000
  S   S28       1.0  0.44052  0.39436  0.44517  1.0000
  F   F27       1.0  0.43620  0.43356  0.44947  1.0000
  F   F28       1.0  0.44133  0.39564  0.46231  1.0000
  O   O53       1.0  0.41644  0.41727  0.44691  1.0000
  O   O54       1.0  0.42556  0.42770  0.42635  1.0000
  O   O55       1.0  0.42750  0.38719  0.44209  1.0000
  O   O56       1.0  0.45221  0.38513  0.44187  1.0000
  N   N14       1.0  0.44113  0.41009  0.43924  1.0000
  S   S29       1.0  0.26030  0.26249  0.56005  1.0000
  S   S30       1.0  0.28543  0.27896  0.56381  1.0000
  F   F29       1.0  0.24879  0.27498  0.55652  1.0000
  F   F30       1.0  0.29625  0.27551  0.57634  1.0000
  O   O57       1.0  0.25266  0.25205  0.56806  1.0000
  O   O58       1.0  0.26481  0.25834  0.54610  1.0000
  O   O59       1.0  0.29292  0.27267  0.55194  1.0000
  O   O60       1.0  0.28297  0.29408  0.56338  1.0000
  N   N15       1.0  0.27174  0.27037  0.56926  1.0000
  S   S31       1.0  0.38745  0.37365  0.44783  1.0000
  S   S32       1.0  0.39570  0.34641  0.43633  1.0000
  F   F31       1.0  0.38341  0.37203  0.46423  1.0000
  F   F32       1.0  0.40116  0.34860  0.42104  1.0000
  O   O61       1.0  0.37410  0.37467  0.44016  1.0000
  O   O62       1.0  0.39544  0.38693  0.44817  1.0000
  O   O63       1.0  0.40419  0.33470  0.44150  1.0000
  O   O64       1.0  0.38123  0.34233  0.43448  1.0000
  N   N16       1.0  0.39834  0.36132  0.44456  1.0000
