data_image0
_chemical_formula_structural       Li20S2F2O4NS2F2O4NS2F2O4NS2F2O4NS2F2O4NS2F2O4NS2F2O4NS2F2O4NS2F2O4NS2F2O4NS2F2O4NS2F2O4NS2F2O4NS2F2O4NS2F2O4NS2F2O4NS2F2O4NS2F2O4NS2F2O4N
_chemical_formula_sum              "Li20 S38 F38 O76 N19"
_cell_length_a       93.5399
_cell_length_b       93.5399
_cell_length_c       93.5399
_cell_angle_alpha    90
_cell_angle_beta     90
_cell_angle_gamma    90

_space_group_name_H-M_alt    "P 1"
_space_group_IT_number       1

loop_
  _space_group_symop_operation_xyz
  'x, y, z'

loop_
  _atom_site_type_symbol
  _atom_site_label
  _atom_site_symmetry_multiplicity
  _atom_site_fract_x
  _atom_site_fract_y
  _atom_site_fract_z
  _atom_site_occupancy
  Li  Li1       1.0  0.64418  0.16111  0.95575  1.0000
  Li  Li2       1.0  0.63790  0.20613  0.98133  1.0000
  Li  Li3       1.0  0.64973  0.22876  0.91175  1.0000
  Li  Li4       1.0  0.66395  0.18240  0.91076  1.0000
  Li  Li5       1.0  0.64590  0.14976  0.98467  1.0000
  Li  Li6       1.0  0.61331  0.19519  0.93195  1.0000
  Li  Li7       1.0  0.62970  0.17506  0.01023  1.0000
  Li  Li8       1.0  0.61355  0.18095  0.06062  1.0000
  Li  Li9       1.0  0.66240  0.23929  0.94420  1.0000
  Li  Li10      1.0  0.69535  0.23413  0.90346  1.0000
  Li  Li11      1.0  0.64941  0.15241  0.04689  1.0000
  Li  Li12      1.0  0.66912  0.12626  0.00307  1.0000
  Li  Li13      1.0  0.67927  0.09095  0.00905  1.0000
  Li  Li14      1.0  0.74703  0.23008  0.87548  1.0000
  Li  Li15      1.0  0.76135  0.23123  0.95394  1.0000
  Li  Li16      1.0  0.76382  0.20622  0.91384  1.0000
  Li  Li17      1.0  0.80304  0.19469  0.91323  1.0000
  Li  Li18      1.0  0.77639  0.17165  0.93425  1.0000
  Li  Li19      1.0  0.78127  0.14322  0.93011  1.0000
  Li  Li20      1.0  0.72164  0.16428  0.92301  1.0000
  S   S1        1.0  0.65740  0.19074  0.96115  1.0000
  S   S2        1.0  0.65147  0.20112  0.93456  1.0000
  F   F1        1.0  0.67360  0.19314  0.96375  1.0000
  F   F2        1.0  0.63546  0.19765  0.93256  1.0000
  O   O1        1.0  0.65560  0.17622  0.95672  1.0000
  O   O2        1.0  0.65095  0.19336  0.97461  1.0000
  O   O3        1.0  0.65342  0.21423  0.92713  1.0000
  O   O4        1.0  0.65809  0.18876  0.92857  1.0000
  N   N1        1.0  0.65281  0.20249  0.95066  1.0000
  S   S3        1.0  0.62013  0.16885  0.97732  1.0000
  S   S4        1.0  0.61155  0.19470  0.96576  1.0000
  F   F3        1.0  0.60524  0.16128  0.97986  1.0000
  F   F4        1.0  0.59706  0.19609  0.97460  1.0000
  O   O5        1.0  0.62345  0.17677  0.98982  1.0000
  O   O6        1.0  0.63007  0.15773  0.97352  1.0000
  O   O7        1.0  0.62155  0.20432  0.97145  1.0000
  O   O8        1.0  0.60798  0.19946  0.95137  1.0000
  N   N2        1.0  0.61576  0.17831  0.96486  1.0000
  S   S5        1.0  0.62553  0.16393  0.92788  1.0000
  S   S6        1.0  0.65208  0.15754  0.91504  1.0000
  F   F5        1.0  0.61585  0.15199  0.92178  1.0000
  F   F6        1.0  0.64697  0.14167  0.90905  1.0000
  O   O9        1.0  0.61668  0.17625  0.92855  1.0000
  O   O10       1.0  0.63019  0.15894  0.94143  1.0000
  O   O11       1.0  0.66061  0.16391  0.90445  1.0000
  O   O12       1.0  0.65966  0.15476  0.92785  1.0000
  N   N3        1.0  0.63716  0.16549  0.91602  1.0000
  S   S7        1.0  0.62386  0.20607  0.01020  1.0000
  S   S8        1.0  0.60652  0.18898  0.02689  1.0000
  F   F7        1.0  0.63010  0.21717  0.02035  1.0000
  F   F8        1.0  0.59833  0.17867  0.01570  1.0000
  O   O13       1.0  0.61157  0.21324  0.00466  1.0000
  O   O14       1.0  0.63479  0.20460  0.00026  1.0000
  O   O15       1.0  0.60910  0.18089  0.03976  1.0000
  O   O16       1.0  0.59698  0.20016  0.03013  1.0000
  N   N4        1.0  0.62076  0.19196  0.01825  1.0000
  S   S9        1.0  0.64486  0.20348  0.89308  1.0000
  S   S10       1.0  0.61983  0.21267  0.90570  1.0000
  F   F9        1.0  0.63902  0.20291  0.87743  1.0000
  F   F10       1.0  0.61147  0.21505  0.89118  1.0000
  O   O17       1.0  0.65566  0.19270  0.89393  1.0000
  O   O18       1.0  0.64913  0.21751  0.89483  1.0000
  O   O19       1.0  0.60958  0.20698  0.91521  1.0000
  O   O20       1.0  0.62580  0.22626  0.91022  1.0000
  N   N5        1.0  0.63174  0.20065  0.90342  1.0000
  S   S11       1.0  0.66997  0.25427  0.90133  1.0000
  S   S12       1.0  0.66965  0.26789  0.92848  1.0000
  F   F11       1.0  0.66181  0.26237  0.88945  1.0000
  F   F12       1.0  0.65353  0.27080  0.92821  1.0000
  O   O21       1.0  0.65878  0.24607  0.90759  1.0000
  O   O22       1.0  0.68216  0.24686  0.89571  1.0000
  O   O23       1.0  0.67117  0.25565  0.93748  1.0000
  O   O24       1.0  0.67533  0.28019  0.93462  1.0000
  N   N6        1.0  0.67457  0.26633  0.91234  1.0000
  S   S13       1.0  0.69012  0.19989  0.91380  1.0000
  S   S14       1.0  0.68750  0.22227  0.93303  1.0000
  F   F13       1.0  0.70564  0.19382  0.91502  1.0000
  F   F14       1.0  0.70172  0.22625  0.94092  1.0000
  O   O25       1.0  0.68966  0.21048  0.90265  1.0000
  O   O26       1.0  0.68269  0.18709  0.91077  1.0000
  O   O27       1.0  0.68836  0.23224  0.92171  1.0000
  O   O28       1.0  0.67647  0.22591  0.94279  1.0000
  N   N7        1.0  0.68791  0.20584  0.92891  1.0000
  S   S15       1.0  0.63402  0.12714  0.00642  1.0000
  S   S16       1.0  0.62368  0.14668  0.02711  1.0000
  F   F15       1.0  0.62001  0.12355  0.99807  1.0000
  F   F16       1.0  0.60753  0.14532  0.03211  1.0000
  O   O29       1.0  0.64211  0.11413  0.00747  1.0000
  O   O30       1.0  0.64126  0.13833  0.99895  1.0000
  O   O31       1.0  0.63006  0.15059  0.04080  1.0000
  O   O32       1.0  0.62350  0.15764  0.01674  1.0000
  N   N8        1.0  0.62863  0.13161  0.02127  1.0000
  S   S17       1.0  0.66228  0.13048  0.96718  1.0000
  S   S18       1.0  0.66816  0.10675  0.98386  1.0000
  F   F17       1.0  0.67760  0.13746  0.96577  1.0000
  F   F18       1.0  0.65355  0.09742  0.97978  1.0000
  O   O33       1.0  0.65376  0.14288  0.96797  1.0000
  O   O34       1.0  0.65949  0.12087  0.95543  1.0000
  O   O35       1.0  0.67953  0.10220  0.97472  1.0000
  O   O36       1.0  0.67172  0.10414  0.99845  1.0000
  N   N9        1.0  0.66382  0.12267  0.98196  1.0000
  S   S19       1.0  0.67338  0.15771  0.00042  1.0000
  S   S20       1.0  0.66111  0.17381  0.02385  1.0000
  F   F19       1.0  0.68694  0.16527  0.99398  1.0000
  F   F20       1.0  0.66899  0.18807  0.02805  1.0000
  O   O37       1.0  0.66171  0.16207  0.99138  1.0000
  O   O38       1.0  0.67581  0.14289  0.00099  1.0000
  O   O39       1.0  0.64909  0.17740  0.01520  1.0000
  O   O40       1.0  0.65702  0.16859  0.03793  1.0000
  N   N10       1.0  0.67264  0.16467  0.01580  1.0000
  S   S21       1.0  0.63975  0.16154  0.07605  1.0000
  S   S22       1.0  0.62140  0.16345  0.09942  1.0000
  F   F21       1.0  0.65165  0.16939  0.08491  1.0000
  F   F22       1.0  0.62808  0.15659  0.11280  1.0000
  O   O41       1.0  0.63336  0.17269  0.06812  1.0000
  O   O42       1.0  0.64706  0.15164  0.06684  1.0000
  O   O43       1.0  0.62515  0.17743  0.10138  1.0000
  O   O44       1.0  0.60571  0.16116  0.10116  1.0000
  N   N11       1.0  0.62831  0.15577  0.08670  1.0000
  S   S23       1.0  0.62827  0.24045  0.94978  1.0000
  S   S24       1.0  0.64753  0.23940  0.97402  1.0000
  F   F23       1.0  0.62309  0.22422  0.94557  1.0000
  F   F24       1.0  0.64851  0.25186  0.98513  1.0000
  O   O45       1.0  0.63986  0.24246  0.94015  1.0000
  O   O46       1.0  0.61597  0.24853  0.94720  1.0000
  O   O47       1.0  0.65028  0.22746  0.98333  1.0000
  O   O48       1.0  0.65911  0.24252  0.96522  1.0000
  N   N12       1.0  0.63210  0.23965  0.96669  1.0000
  S   S25       1.0  0.73056  0.22802  0.90488  1.0000
  S   S26       1.0  0.75089  0.23707  0.92444  1.0000
  F   F25       1.0  0.72943  0.21164  0.90524  1.0000
  F   F26       1.0  0.75301  0.25153  0.91720  1.0000
  O   O49       1.0  0.74140  0.23118  0.89430  1.0000
  O   O50       1.0  0.71608  0.23206  0.90181  1.0000
  O   O51       1.0  0.75231  0.23985  0.93945  1.0000
  O   O52       1.0  0.76132  0.22811  0.91852  1.0000
  N   N13       1.0  0.73502  0.23212  0.92100  1.0000
  S   S27       1.0  0.68566  0.10019  0.04181  1.0000
  S   S28       1.0  0.66412  0.12128  0.03631  1.0000
  F   F27       1.0  0.69955  0.10912  0.04370  1.0000
  F   F28       1.0  0.65149  0.11186  0.03741  1.0000
  O   O53       1.0  0.68599  0.09580  0.02690  1.0000
  O   O54       1.0  0.68655  0.08860  0.05157  1.0000
  O   O55       1.0  0.66027  0.13493  0.04187  1.0000
  O   O56       1.0  0.66877  0.12049  0.02222  1.0000
  N   N14       1.0  0.67473  0.11226  0.04635  1.0000
  S   S29       1.0  0.77216  0.20887  0.88204  1.0000
  S   S30       1.0  0.79451  0.21973  0.89972  1.0000
  F   F29       1.0  0.77788  0.19521  0.87424  1.0000
  F   F30       1.0  0.79028  0.23396  0.90634  1.0000
  O   O57       1.0  0.76234  0.21554  0.87172  1.0000
  O   O58       1.0  0.76560  0.20424  0.89492  1.0000
  O   O59       1.0  0.78971  0.20958  0.91077  1.0000
  O   O60       1.0  0.80942  0.22076  0.89889  1.0000
  N   N15       1.0  0.78563  0.21925  0.88562  1.0000
  S   S31       1.0  0.78375  0.20333  0.94765  1.0000
  S   S32       1.0  0.81335  0.20559  0.94233  1.0000
  F   F31       1.0  0.78172  0.19725  0.96277  1.0000
  F   F32       1.0  0.82009  0.19289  0.95033  1.0000
  O   O61       1.0  0.78136  0.19080  0.93866  1.0000
  O   O62       1.0  0.77213  0.21309  0.94613  1.0000
  O   O63       1.0  0.81265  0.20020  0.92809  1.0000
  O   O64       1.0  0.82277  0.21735  0.94562  1.0000
  N   N16       1.0  0.79887  0.20966  0.94944  1.0000
  S   S33       1.0  0.74971  0.15575  0.93712  1.0000
  S   S34       1.0  0.74546  0.18522  0.93314  1.0000
  F   F33       1.0  0.74706  0.15004  0.95235  1.0000
  F   F34       1.0  0.74272  0.19430  0.94721  1.0000
  O   O65       1.0  0.76178  0.14708  0.93323  1.0000
  O   O66       1.0  0.73668  0.15207  0.92917  1.0000
  O   O67       1.0  0.75406  0.19436  0.92444  1.0000
  O   O68       1.0  0.73210  0.18235  0.92654  1.0000
  N   N17       1.0  0.75397  0.17208  0.93870  1.0000
  S   S35       1.0  0.79741  0.13637  0.90175  1.0000
  S   S36       1.0  0.78976  0.16496  0.90543  1.0000
  F   F35       1.0  0.79122  0.13211  0.88687  1.0000
  F   F36       1.0  0.77756  0.16817  0.89431  1.0000
  O   O69       1.0  0.78695  0.13310  0.91226  1.0000
  O   O70       1.0  0.81088  0.12917  0.90336  1.0000
  O   O71       1.0  0.78246  0.16105  0.91818  1.0000
  O   O72       1.0  0.79767  0.17799  0.90674  1.0000
  N   N18       1.0  0.79941  0.15285  0.89888  1.0000
  S   S37       1.0  0.79619  0.16065  0.96166  1.0000
  S   S38       1.0  0.80137  0.13165  0.95606  1.0000
  F   F37       1.0  0.78563  0.16253  0.97459  1.0000
  F   F38       1.0  0.79157  0.12172  0.96611  1.0000
  O   O73       1.0  0.78717  0.16239  0.94967  1.0000
  O   O74       1.0  0.80673  0.17169  0.96310  1.0000
  O   O75       1.0  0.79356  0.13211  0.94297  1.0000
  O   O76       1.0  0.81429  0.12407  0.95565  1.0000
  N   N19       1.0  0.80293  0.14558  0.96497  1.0000
