data_image0
_chemical_formula_structural       Li3S2F2O4NS2F2O4NS2F2O4N
_chemical_formula_sum              "Li3 S6 F6 O12 N3"
_cell_length_a       93.5399
_cell_length_b       93.5399
_cell_length_c       93.5399
_cell_angle_alpha    90
_cell_angle_beta     90
_cell_angle_gamma    90

_space_group_name_H-M_alt    "P 1"
_space_group_IT_number       1

loop_
  _space_group_symop_operation_xyz
  'x, y, z'

loop_
  _atom_site_type_symbol
  _atom_site_label
  _atom_site_symmetry_multiplicity
  _atom_site_fract_x
  _atom_site_fract_y
  _atom_site_fract_z
  _atom_site_occupancy
  Li  Li1       1.0  0.98132  0.92270  0.15757  1.0000
  Li  Li2       1.0  0.02216  0.88029  0.14762  1.0000
  Li  Li3       1.0  0.96534  0.98549  0.15260  1.0000
  S   S1        1.0  0.99779  0.86809  0.16409  1.0000
  S   S2        1.0  0.00460  0.89805  0.16841  1.0000
  F   F1        1.0  0.98392  0.86537  0.15585  1.0000
  F   F2        1.0  0.00949  0.90092  0.18403  1.0000
  O   O1        1.0  0.99800  0.85760  0.17451  1.0000
  O   O2        1.0  0.00918  0.86835  0.15346  1.0000
  O   O3        1.0  0.01714  0.89563  0.16065  1.0000
  O   O4        1.0  0.99792  0.91087  0.16366  1.0000
  N   N1        1.0  0.99534  0.88424  0.16968  1.0000
  S   S3        1.0  0.99843  0.97768  0.14927  1.0000
  S   S4        1.0  0.97882  0.95793  0.16161  1.0000
  F   F3        1.0  0.00465  0.97003  0.13606  1.0000
  F   F4        1.0  0.97596  0.96026  0.17768  1.0000
  O   O5        1.0  0.00899  0.98639  0.15553  1.0000
  O   O6        1.0  0.98631  0.98548  0.14458  1.0000
  O   O7        1.0  0.96762  0.96522  0.15462  1.0000
  O   O8        1.0  0.97972  0.94275  0.16010  1.0000
  N   N2        1.0  0.99402  0.96459  0.15891  1.0000
  S   S5        1.0  0.96500  0.01050  0.17574  1.0000
  S   S6        1.0  0.94533  0.01169  0.15299  1.0000
  F   F5        1.0  0.95821  0.00554  0.18865  1.0000
  F   F6        1.0  0.92872  0.01043  0.15581  1.0000
  O   O9        1.0  0.97502  0.02062  0.18060  1.0000
  O   O10       1.0  0.97106  0.99737  0.17039  1.0000
  O   O11       1.0  0.94709  0.02137  0.14120  1.0000
  O   O12       1.0  0.94979  0.99717  0.15024  1.0000
  N   N3        1.0  0.95189  0.01682  0.16650  1.0000
