data_image0
_chemical_formula_structural       Li11S2F2O4NS2F2O4NS2F2O4NS2F2O4NS2F2O4NS2F2O4NS2F2O4NS2F2O4NS2F2O4NS2F2O4NS2F2O4N
_chemical_formula_sum              "Li11 S22 F22 O44 N11"
_cell_length_a       93.5399
_cell_length_b       93.5399
_cell_length_c       93.5399
_cell_angle_alpha    90
_cell_angle_beta     90
_cell_angle_gamma    90

_space_group_name_H-M_alt    "P 1"
_space_group_IT_number       1

loop_
  _space_group_symop_operation_xyz
  'x, y, z'

loop_
  _atom_site_type_symbol
  _atom_site_label
  _atom_site_symmetry_multiplicity
  _atom_site_fract_x
  _atom_site_fract_y
  _atom_site_fract_z
  _atom_site_occupancy
  Li  Li1       1.0  0.20571  0.29368  0.33109  1.0000
  Li  Li2       1.0  0.20145  0.24836  0.30823  1.0000
  Li  Li3       1.0  0.20595  0.31094  0.29127  1.0000
  Li  Li4       1.0  0.20077  0.26428  0.27486  1.0000
  Li  Li5       1.0  0.20273  0.30247  0.35951  1.0000
  Li  Li6       1.0  0.15501  0.23565  0.28288  1.0000
  Li  Li7       1.0  0.21672  0.27740  0.19879  1.0000
  Li  Li8       1.0  0.17261  0.25357  0.23273  1.0000
  Li  Li9       1.0  0.22414  0.32017  0.39703  1.0000
  Li  Li10      1.0  0.25117  0.29405  0.37387  1.0000
  Li  Li11      1.0  0.25541  0.26028  0.36159  1.0000
  S   S1        1.0  0.18913  0.27160  0.32722  1.0000
  S   S2        1.0  0.18902  0.28172  0.29941  1.0000
  F   F1        1.0  0.17462  0.27460  0.33530  1.0000
  F   F2        1.0  0.17275  0.28193  0.29681  1.0000
  O   O1        1.0  0.20059  0.27233  0.33746  1.0000
  O   O2        1.0  0.18833  0.25775  0.32080  1.0000
  O   O3        1.0  0.19393  0.29314  0.29114  1.0000
  O   O4        1.0  0.19405  0.26912  0.29252  1.0000
  N   N1        1.0  0.19118  0.28363  0.31597  1.0000
  S   S3        1.0  0.19310  0.32111  0.32020  1.0000
  S   S4        1.0  0.17627  0.31105  0.34290  1.0000
  F   F3        1.0  0.20073  0.33497  0.32319  1.0000
  F   F4        1.0  0.16514  0.30022  0.33649  1.0000
  O   O5        1.0  0.18960  0.32148  0.30557  1.0000
  O   O6        1.0  0.20388  0.31060  0.32328  1.0000
  O   O7        1.0  0.18843  0.30175  0.34630  1.0000
  O   O8        1.0  0.16856  0.31778  0.35435  1.0000
  N   N2        1.0  0.17986  0.32089  0.33023  1.0000
  S   S5        1.0  0.22735  0.26319  0.29204  1.0000
  S   S6        1.0  0.22862  0.29091  0.30442  1.0000
  F   F5        1.0  0.24261  0.25718  0.29326  1.0000
  F   F6        1.0  0.24436  0.29679  0.30872  1.0000
  O   O9        1.0  0.22271  0.25950  0.27835  1.0000
  O   O10       1.0  0.21965  0.25635  0.30392  1.0000
  O   O11       1.0  0.22200  0.30342  0.29869  1.0000
  O   O12       1.0  0.22284  0.28572  0.31775  1.0000
  N   N3        1.0  0.23067  0.27969  0.29189  1.0000
  S   S7        1.0  0.19546  0.21496  0.31631  1.0000
  S   S8        1.0  0.18571  0.22661  0.28985  1.0000
  F   F7        1.0  0.18352  0.21498  0.32700  1.0000
  F   F8        1.0  0.19266  0.21997  0.27682  1.0000
  O   O13       1.0  0.20379  0.22799  0.31945  1.0000
  O   O14       1.0  0.20255  0.20178  0.31996  1.0000
  O   O15       1.0  0.17141  0.22798  0.28499  1.0000
  O   O16       1.0  0.19277  0.23950  0.29238  1.0000
  N   N4        1.0  0.18802  0.21454  0.30136  1.0000
  S   S9        1.0  0.20367  0.26687  0.22511  1.0000
  S   S10       1.0  0.20599  0.28652  0.24825  1.0000
  F   F9        1.0  0.21537  0.25541  0.23009  1.0000
  F   F10       1.0  0.18982  0.29115  0.24783  1.0000
  O   O17       1.0  0.20442  0.26727  0.21027  1.0000
  O   O18       1.0  0.19060  0.26104  0.23104  1.0000
  O   O19       1.0  0.20688  0.27663  0.25957  1.0000
  O   O20       1.0  0.21253  0.30020  0.25134  1.0000
  N   N5        1.0  0.20910  0.28088  0.23249  1.0000
  S   S11       1.0  0.16915  0.25733  0.26581  1.0000
  S   S12       1.0  0.15042  0.23822  0.25214  1.0000
  F   F11       1.0  0.16543  0.27335  0.26194  1.0000
  F   F12       1.0  0.13810  0.24840  0.24941  1.0000
  O   O21       1.0  0.18416  0.25766  0.26573  1.0000
  O   O22       1.0  0.16144  0.25482  0.27879  1.0000
  O   O23       1.0  0.15071  0.22794  0.24091  1.0000
  O   O24       1.0  0.14695  0.23246  0.26570  1.0000
  N   N6        1.0  0.16389  0.24977  0.25200  1.0000
  S   S13       1.0  0.20026  0.29781  0.38842  1.0000
  S   S14       1.0  0.19397  0.32417  0.40364  1.0000
  F   F13       1.0  0.19722  0.28679  0.39983  1.0000
  F   F14       1.0  0.18535  0.32121  0.41826  1.0000
  O   O25       1.0  0.21512  0.30019  0.39007  1.0000
  O   O26       1.0  0.19559  0.29194  0.37509  1.0000
  O   O27       1.0  0.20861  0.32399  0.40846  1.0000
  O   O28       1.0  0.18795  0.33781  0.39974  1.0000
  N   N7        1.0  0.19041  0.31121  0.39295  1.0000
  S   S15       1.0  0.23412  0.29983  0.35235  1.0000
  S   S16       1.0  0.22360  0.32528  0.36737  1.0000
  F   F15       1.0  0.23919  0.30496  0.33725  1.0000
  F   F16       1.0  0.22514  0.33782  0.35671  1.0000
  O   O29       1.0  0.21998  0.29497  0.35233  1.0000
  O   O30       1.0  0.24414  0.28925  0.35717  1.0000
  O   O31       1.0  0.20962  0.32029  0.36483  1.0000
  O   O32       1.0  0.22568  0.33123  0.38093  1.0000
  N   N8        1.0  0.23539  0.31345  0.36339  1.0000
  S   S17       1.0  0.23520  0.28930  0.15587  1.0000
  S   S18       1.0  0.20695  0.28141  0.16582  1.0000
  F   F17       1.0  0.24288  0.27797  0.16657  1.0000
  F   F18       1.0  0.19700  0.29517  0.16401  1.0000
  O   O33       1.0  0.23625  0.30311  0.16206  1.0000
  O   O34       1.0  0.24450  0.28662  0.14356  1.0000
  O   O35       1.0  0.19824  0.26964  0.16270  1.0000
  O   O36       1.0  0.21100  0.28213  0.18035  1.0000
  N   N9        1.0  0.21898  0.28373  0.15413  1.0000
  S   S19       1.0  0.25019  0.30773  0.40424  1.0000
  S   S20       1.0  0.27517  0.31229  0.38818  1.0000
  F   F19       1.0  0.25356  0.29840  0.41723  1.0000
  F   F20       1.0  0.28882  0.30551  0.39559  1.0000
  O   O37       1.0  0.24545  0.29789  0.39356  1.0000
  O   O38       1.0  0.23954  0.31740  0.40872  1.0000
  O   O39       1.0  0.27015  0.30185  0.37792  1.0000
  O   O40       1.0  0.28024  0.32510  0.38118  1.0000
  N   N10       1.0  0.26504  0.31523  0.40102  1.0000
  S   S21       1.0  0.26996  0.26900  0.38975  1.0000
  S   S22       1.0  0.26965  0.24082  0.37841  1.0000
  F   F21       1.0  0.28412  0.27788  0.38592  1.0000
  F   F22       1.0  0.25449  0.23460  0.38328  1.0000
  O   O41       1.0  0.26605  0.27313  0.40425  1.0000
  O   O42       1.0  0.26125  0.27363  0.37811  1.0000
  O   O43       1.0  0.26863  0.24582  0.36421  1.0000
  O   O44       1.0  0.27893  0.22844  0.37915  1.0000
  N   N11       1.0  0.27439  0.25282  0.38941  1.0000
