data_image0
_chemical_formula_structural       Li5S2F2O4NS2F2O4NS2F2O4NS2F2O4NS2F2O4NS2F2O4N
_chemical_formula_sum              "Li5 S12 F12 O24 N6"
_cell_length_a       93.5399
_cell_length_b       93.5399
_cell_length_c       93.5399
_cell_angle_alpha    90
_cell_angle_beta     90
_cell_angle_gamma    90

_space_group_name_H-M_alt    "P 1"
_space_group_IT_number       1

loop_
  _space_group_symop_operation_xyz
  'x, y, z'

loop_
  _atom_site_type_symbol
  _atom_site_label
  _atom_site_symmetry_multiplicity
  _atom_site_fract_x
  _atom_site_fract_y
  _atom_site_fract_z
  _atom_site_occupancy
  Li  Li1       1.0  0.86363  0.99919  0.24063  1.0000
  Li  Li2       1.0  0.86925  0.99989  0.20542  1.0000
  Li  Li3       1.0  0.85316  0.96213  0.19752  1.0000
  Li  Li4       1.0  0.80463  0.98390  0.26227  1.0000
  Li  Li5       1.0  0.84541  0.94748  0.24937  1.0000
  S   S1        1.0  0.86714  0.03220  0.23740  1.0000
  S   S2        1.0  0.87710  0.03350  0.20910  1.0000
  F   F1        1.0  0.85122  0.03245  0.23287  1.0000
  F   F2        1.0  0.89368  0.03380  0.20906  1.0000
  O   O1        1.0  0.86716  0.04079  0.24986  1.0000
  O   O2        1.0  0.87225  0.01754  0.23787  1.0000
  O   O3        1.0  0.87446  0.01868  0.20789  1.0000
  O   O4        1.0  0.87311  0.04211  0.19681  1.0000
  N   N1        1.0  0.87381  0.04048  0.22389  1.0000
  S   S3        1.0  0.83704  0.98860  0.21133  1.0000
  S   S4        1.0  0.83002  0.99582  0.23921  1.0000
  F   F3        1.0  0.82486  0.99587  0.20279  1.0000
  F   F4        1.0  0.82627  0.01200  0.23656  1.0000
  O   O5        1.0  0.84046  0.97578  0.20341  1.0000
  O   O6        1.0  0.84853  0.99899  0.21187  1.0000
  O   O7        1.0  0.81946  0.99257  0.24865  1.0000
  O   O8        1.0  0.84416  0.99610  0.24433  1.0000
  N   N2        1.0  0.82766  0.98694  0.22490  1.0000
  S   S5        1.0  0.87753  0.97488  0.21674  1.0000
  S   S6        1.0  0.87099  0.96978  0.24543  1.0000
  F   F5        1.0  0.89412  0.97377  0.21462  1.0000
  F   F6        1.0  0.88291  0.96188  0.25422  1.0000
  O   O9        1.0  0.87553  0.98948  0.21975  1.0000
  O   O10       1.0  0.87131  0.96966  0.20389  1.0000
  O   O11       1.0  0.87271  0.98406  0.24940  1.0000
  O   O12       1.0  0.85775  0.96416  0.25057  1.0000
  N   N3        1.0  0.87485  0.96546  0.23002  1.0000
  S   S7        1.0  0.86065  0.99932  0.17190  1.0000
  S   S8        1.0  0.85859  0.97026  0.16200  1.0000
  F   F7        1.0  0.84547  0.00554  0.17432  1.0000
  F   F8        1.0  0.87525  0.96544  0.16092  1.0000
  O   O13       1.0  0.86766  0.01135  0.16552  1.0000
  O   O14       1.0  0.86599  0.99485  0.18597  1.0000
  O   O15       1.0  0.85434  0.96460  0.17549  1.0000
  O   O16       1.0  0.85175  0.96353  0.14986  1.0000
  N   N4        1.0  0.85982  0.98668  0.16081  1.0000
  S   S9        1.0  0.84668  0.93872  0.21764  1.0000
  S   S10       1.0  0.86653  0.92632  0.23674  1.0000
  F   F9        1.0  0.83437  0.92719  0.21764  1.0000
  F   F10       1.0  0.87831  0.93703  0.23727  1.0000
  O   O17       1.0  0.84568  0.94424  0.20383  1.0000
  O   O18       1.0  0.84202  0.94780  0.22910  1.0000
  O   O19       1.0  0.85625  0.93103  0.24753  1.0000
  O   O20       1.0  0.87332  0.91285  0.23798  1.0000
  N   N5        1.0  0.86050  0.92972  0.22159  1.0000
  S   S11       1.0  0.81782  0.95194  0.26999  1.0000
  S   S12       1.0  0.79312  0.94092  0.28362  1.0000
  F   F11       1.0  0.82332  0.95426  0.28522  1.0000
  F   F12       1.0  0.77936  0.94242  0.27324  1.0000
  O   O21       1.0  0.81234  0.96559  0.26595  1.0000
  O   O22       1.0  0.83117  0.94629  0.26241  1.0000
  O   O23       1.0  0.79149  0.92700  0.29008  1.0000
  O   O24       1.0  0.79354  0.95228  0.29379  1.0000
  N   N6        1.0  0.80601  0.94040  0.27423  1.0000
