data_image0
_chemical_formula_structural       Li4S2F2O4NS2F2O4NS2F2O4NS2F2O4N
_chemical_formula_sum              "Li4 S8 F8 O16 N4"
_cell_length_a       93.5399
_cell_length_b       93.5399
_cell_length_c       93.5399
_cell_angle_alpha    90
_cell_angle_beta     90
_cell_angle_gamma    90

_space_group_name_H-M_alt    "P 1"
_space_group_IT_number       1

loop_
  _space_group_symop_operation_xyz
  'x, y, z'

loop_
  _atom_site_type_symbol
  _atom_site_label
  _atom_site_symmetry_multiplicity
  _atom_site_fract_x
  _atom_site_fract_y
  _atom_site_fract_z
  _atom_site_occupancy
  Li  Li1       1.0  0.85079  0.54818  0.84559  1.0000
  Li  Li2       1.0  0.90031  0.51124  0.85430  1.0000
  Li  Li3       1.0  0.86478  0.51925  0.80826  1.0000
  Li  Li4       1.0  0.90168  0.48237  0.76941  1.0000
  S   S1        1.0  0.88563  0.54184  0.85308  1.0000
  S   S2        1.0  0.87627  0.54713  0.82429  1.0000
  F   F1        1.0  0.89550  0.55544  0.85847  1.0000
  F   F2        1.0  0.88322  0.56103  0.81752  1.0000
  O   O1        1.0  0.89264  0.52919  0.85786  1.0000
  O   O2        1.0  0.87186  0.54422  0.85879  1.0000
  O   O3        1.0  0.87495  0.53701  0.81298  1.0000
  O   O4        1.0  0.86325  0.55121  0.83053  1.0000
  N   N1        1.0  0.88669  0.54276  0.83631  1.0000
  S   S3        1.0  0.83649  0.56835  0.86809  1.0000
  S   S4        1.0  0.82213  0.56854  0.84197  1.0000
  F   F3        1.0  0.84753  0.57889  0.86198  1.0000
  F   F4        1.0  0.82468  0.58289  0.83394  1.0000
  O   O5        1.0  0.84341  0.55471  0.86694  1.0000
  O   O6        1.0  0.83446  0.57406  0.88183  1.0000
  O   O7        1.0  0.83231  0.55902  0.83631  1.0000
  O   O8        1.0  0.80753  0.56563  0.83722  1.0000
  N   N2        1.0  0.82255  0.57124  0.85827  1.0000
  S   S5        1.0  0.87551  0.50127  0.83444  1.0000
  S   S6        1.0  0.84856  0.51469  0.83805  1.0000
  F   F5        1.0  0.87613  0.48491  0.83003  1.0000
  F   F6        1.0  0.83391  0.50578  0.83984  1.0000
  O   O9        1.0  0.88783  0.50353  0.84310  1.0000
  O   O10       1.0  0.87705  0.50771  0.82050  1.0000
  O   O11       1.0  0.84706  0.52592  0.84782  1.0000
  O   O12       1.0  0.84934  0.51862  0.82291  1.0000
  N   N3        1.0  0.86020  0.50414  0.84237  1.0000
  S   S7        1.0  0.88497  0.50926  0.75784  1.0000
  S   S8        1.0  0.86235  0.52158  0.77469  1.0000
  F   F7        1.0  0.87638  0.50682  0.74317  1.0000
  F   F8        1.0  0.84728  0.51700  0.76897  1.0000
  O   O13       1.0  0.89513  0.49845  0.75849  1.0000
  O   O14       1.0  0.89268  0.52209  0.75602  1.0000
  O   O15       1.0  0.86010  0.52374  0.78978  1.0000
  O   O16       1.0  0.86573  0.53444  0.76723  1.0000
  N   N4        1.0  0.87311  0.50977  0.76984  1.0000
