data_image0
_chemical_formula_structural       Li29S2F2O4NS2F2O4NS2F2O4NS2F2O4NS2F2O4NS2F2O4NS2F2O4NS2F2O4NS2F2O4NS2F2O4NS2F2O4NS2F2O4NS2F2O4NS2F2O4NS2F2O4NS2F2O4NS2F2O4NS2F2O4NS2F2O4NS2F2O4NS2F2O4NS2F2O4NS2F2O4NS2F2O4NS2F2O4NS2F2O4NS2F2O4N
_chemical_formula_sum              "Li29 S54 F54 O108 N27"
_cell_length_a       93.5399
_cell_length_b       93.5399
_cell_length_c       93.5399
_cell_angle_alpha    90
_cell_angle_beta     90
_cell_angle_gamma    90

_space_group_name_H-M_alt    "P 1"
_space_group_IT_number       1

loop_
  _space_group_symop_operation_xyz
  'x, y, z'

loop_
  _atom_site_type_symbol
  _atom_site_label
  _atom_site_symmetry_multiplicity
  _atom_site_fract_x
  _atom_site_fract_y
  _atom_site_fract_z
  _atom_site_occupancy
  Li  Li1       1.0  0.52388  0.89528  0.90727  1.0000
  Li  Li2       1.0  0.50678  0.93782  0.89221  1.0000
  Li  Li3       1.0  0.53786  0.95446  0.85308  1.0000
  Li  Li4       1.0  0.55606  0.91960  0.83029  1.0000
  Li  Li5       1.0  0.46612  0.93585  0.88806  1.0000
  Li  Li6       1.0  0.44681  0.97353  0.87922  1.0000
  Li  Li7       1.0  0.50620  0.95924  0.84954  1.0000
  Li  Li8       1.0  0.47170  0.96823  0.82907  1.0000
  Li  Li9       1.0  0.49191  0.97638  0.79707  1.0000
  Li  Li10      1.0  0.54743  0.96406  0.80224  1.0000
  Li  Li11      1.0  0.54434  0.99510  0.82643  1.0000
  Li  Li12      1.0  0.57785  0.92982  0.78859  1.0000
  Li  Li13      1.0  0.52991  0.89372  0.80796  1.0000
  Li  Li14      1.0  0.40818  0.97649  0.91026  1.0000
  Li  Li15      1.0  0.49773  0.99334  0.75414  1.0000
  Li  Li16      1.0  0.53629  0.96651  0.77008  1.0000
  Li  Li17      1.0  0.57279  0.90476  0.75859  1.0000
  Li  Li18      1.0  0.59082  0.92050  0.71977  1.0000
  Li  Li19      1.0  0.54210  0.93243  0.71857  1.0000
  Li  Li20      1.0  0.50068  0.99520  0.69673  1.0000
  Li  Li21      1.0  0.48127  0.02898  0.70670  1.0000
  Li  Li22      1.0  0.46099  0.04083  0.72819  1.0000
  Li  Li23      1.0  0.47213  0.02202  0.61614  1.0000
  Li  Li24      1.0  0.45443  0.06200  0.68450  1.0000
  Li  Li25      1.0  0.45745  0.05854  0.63467  1.0000
  Li  Li26      1.0  0.46667  0.06559  0.57173  1.0000
  Li  Li27      1.0  0.47610  0.09661  0.57936  1.0000
  Li  Li28      1.0  0.43717  0.08820  0.61348  1.0000
  Li  Li29      1.0  0.46695  0.02979  0.52363  1.0000
  S   S1        1.0  0.53311  0.92348  0.85711  1.0000
  S   S2        1.0  0.53684  0.91803  0.88733  1.0000
  F   F1        1.0  0.51885  0.91712  0.85394  1.0000
  F   F2        1.0  0.54996  0.92564  0.89259  1.0000
  O   O1        1.0  0.54144  0.92308  0.84449  1.0000
  O   O2        1.0  0.52970  0.93765  0.86168  1.0000
  O   O3        1.0  0.52507  0.92799  0.89007  1.0000
  O   O4        1.0  0.53623  0.90577  0.89571  1.0000
  N   N1        1.0  0.53878  0.91454  0.87054  1.0000
  S   S3        1.0  0.49982  0.90805  0.92879  1.0000
  S   S4        1.0  0.48197  0.92620  0.91137  1.0000
  F   F3        1.0  0.50909  0.92076  0.93559  1.0000
  F   F4        1.0  0.47399  0.93918  0.91949  1.0000
  O   O5        1.0  0.50759  0.90261  0.91733  1.0000
  O   O6        1.0  0.49780  0.89833  0.93988  1.0000
  O   O7        1.0  0.49472  0.93281  0.90581  1.0000
  O   O8        1.0  0.47207  0.92106  0.90119  1.0000
  N   N2        1.0  0.48451  0.91555  0.92410  1.0000
  S   S5        1.0  0.47516  0.97149  0.89416  1.0000
  S   S6        1.0  0.50328  0.96927  0.88285  1.0000
  F   F5        1.0  0.47915  0.97647  0.90966  1.0000
  F   F6        1.0  0.51505  0.98035  0.88791  1.0000
  O   O9        1.0  0.47304  0.95601  0.89412  1.0000
  O   O10       1.0  0.46219  0.97892  0.89090  1.0000
  O   O11       1.0  0.50666  0.95709  0.89108  1.0000
  O   O12       1.0  0.50579  0.96766  0.86814  1.0000
  N   N3        1.0  0.48834  0.97670  0.88490  1.0000
  S   S7        1.0  0.48779  0.93341  0.86357  1.0000
  S   S8        1.0  0.46204  0.94850  0.85682  1.0000
  F   F7        1.0  0.48720  0.91952  0.85373  1.0000
  F   F8        1.0  0.44754  0.94015  0.85412  1.0000
  O   O13       1.0  0.49429  0.92902  0.87649  1.0000
  O   O14       1.0  0.49577  0.94361  0.85533  1.0000
  O   O15       1.0  0.45772  0.95994  0.86641  1.0000
  O   O16       1.0  0.46745  0.95360  0.84344  1.0000
  N   N4        1.0  0.47177  0.93824  0.86632  1.0000
  S   S9        1.0  0.52114  0.95715  0.82386  1.0000
  S   S10       1.0  0.49788  0.97566  0.82650  1.0000
  F   F9        1.0  0.51744  0.94183  0.81915  1.0000
  F   F10       1.0  0.50632  0.99002  0.82845  1.0000
  O   O17       1.0  0.52120  0.95521  0.83871  1.0000
  O   O18       1.0  0.53337  0.96176  0.81612  1.0000
  O   O19       1.0  0.48580  0.97942  0.81711  1.0000
  O   O20       1.0  0.49301  0.97058  0.84015  1.0000
  N   N5        1.0  0.50825  0.96539  0.81812  1.0000
  S   S11       1.0  0.55896  0.00457  0.85031  1.0000
  S   S12       1.0  0.53691  0.98437  0.85483  1.0000
  F   F11       1.0  0.55690  0.01738  0.86019  1.0000
  F   F12       1.0  0.52708  0.99481  0.86322  1.0000
  O   O21       1.0  0.55292  0.00973  0.83758  1.0000
  O   O22       1.0  0.57418  0.00365  0.84949  1.0000
  O   O23       1.0  0.53294  0.98482  0.84040  1.0000
  O   O24       1.0  0.53567  0.97097  0.86206  1.0000
  N   N6        1.0  0.55183  0.99137  0.85813  1.0000
  S   S13       1.0  0.56460  0.96627  0.82971  1.0000
  S   S14       1.0  0.57939  0.94162  0.81940  1.0000
  F   F13       1.0  0.57725  0.97302  0.83820  1.0000
  F   F14       1.0  0.59314  0.94355  0.82925  1.0000
  O   O25       1.0  0.55735  0.95815  0.84025  1.0000
  O   O26       1.0  0.55698  0.97856  0.82377  1.0000
  O   O27       1.0  0.57342  0.93021  0.82792  1.0000
  O   O28       1.0  0.58346  0.93667  0.80567  1.0000
  N   N7        1.0  0.57168  0.95664  0.81796  1.0000
  S   S15       1.0  0.54727  0.92882  0.79944  1.0000
  S   S16       1.0  0.55988  0.90237  0.79276  1.0000
  F   F15       1.0  0.53288  0.92568  0.79278  1.0000
  F   F16       1.0  0.57243  0.89826  0.80231  1.0000
  O   O29       1.0  0.54940  0.94369  0.79757  1.0000
  O   O30       1.0  0.54591  0.92471  0.81426  1.0000
  O   O31       1.0  0.54741  0.89525  0.79864  1.0000
  O   O32       1.0  0.56331  0.89583  0.77947  1.0000
  N   N8        1.0  0.55824  0.91929  0.79071  1.0000
  S   S17       1.0  0.54778  0.86579  0.81596  1.0000
  S   S18       1.0  0.55000  0.88879  0.83512  1.0000
  F   F17       1.0  0.54577  0.85103  0.82483  1.0000
  F   F18       1.0  0.54487  0.88429  0.85074  1.0000
  O   O33       1.0  0.55712  0.86189  0.80426  1.0000
  O   O34       1.0  0.53380  0.87058  0.81226  1.0000
  O   O35       1.0  0.56116  0.89897  0.83707  1.0000
  O   O36       1.0  0.53763  0.89458  0.82843  1.0000
  N   N9        1.0  0.55523  0.87476  0.82753  1.0000
  S   S19       1.0  0.43282  0.92672  0.89114  1.0000
  S   S20       1.0  0.41955  0.95415  0.88776  1.0000
  F   F19       1.0  0.43312  0.92079  0.90682  1.0000
  F   F20       1.0  0.41188  0.95472  0.87293  1.0000
  O   O37       1.0  0.44657  0.93349  0.88845  1.0000
  O   O38       1.0  0.42911  0.91435  0.88279  1.0000
  O   O39       1.0  0.41003  0.96148  0.89730  1.0000
  O   O40       1.0  0.43264  0.96118  0.88512  1.0000
  N   N10       1.0  0.42049  0.93818  0.89169  1.0000
  S   S21       1.0  0.42918  0.00117  0.90728  1.0000
  S   S22       1.0  0.43655  0.00489  0.87753  1.0000
  F   F21       1.0  0.44456  0.00022  0.91123  1.0000
  F   F22       1.0  0.45267  0.00977  0.87968  1.0000
  O   O41       1.0  0.42405  0.98716  0.90664  1.0000
  O   O42       1.0  0.42270  0.00962  0.91792  1.0000
  O   O43       1.0  0.43777  0.99038  0.87336  1.0000
  O   O44       1.0  0.43049  0.01368  0.86590  1.0000
  N   N11       1.0  0.42919  0.00892  0.89197  1.0000
  S   S23       1.0  0.50594  0.99853  0.78376  1.0000
  S   S24       1.0  0.53361  0.99403  0.79513  1.0000
  F   F23       1.0  0.50339  0.01474  0.78285  1.0000
  F   F24       1.0  0.53923  0.00550  0.78350  1.0000
  O   O45       1.0  0.49206  0.99288  0.78831  1.0000
  O   O46       1.0  0.50994  0.99389  0.77001  1.0000
  O   O47       1.0  0.53988  0.99750  0.80879  1.0000
  O   O48       1.0  0.53798  0.98086  0.78883  1.0000
  N   N12       1.0  0.51657  0.99559  0.79642  1.0000
  S   S25       1.0  0.48221  0.96714  0.76139  1.0000
  S   S26       1.0  0.50680  0.95486  0.77496  1.0000
  F   F25       1.0  0.47320  0.95770  0.75111  1.0000
  F   F26       1.0  0.50316  0.93887  0.77771  1.0000
  O   O49       1.0  0.48338  0.98065  0.75489  1.0000
  O   O50       1.0  0.47442  0.96731  0.77430  1.0000
  O   O51       1.0  0.52163  0.95485  0.77246  1.0000
  O   O52       1.0  0.50311  0.96257  0.78740  1.0000
  N   N13       1.0  0.49813  0.96058  0.76147  1.0000
  S   S27       1.0  0.60499  0.93709  0.74709  1.0000
  S   S28       1.0  0.59770  0.91499  0.76799  1.0000
  F   F27       1.0  0.59720  0.95173  0.74808  1.0000
  F   F28       1.0  0.61075  0.90716  0.77483  1.0000
  O   O53       1.0  0.59744  0.92943  0.73571  1.0000
  O   O54       1.0  0.61921  0.93981  0.74339  1.0000
  O   O55       1.0  0.58692  0.91514  0.77796  1.0000
  O   O56       1.0  0.59412  0.90516  0.75675  1.0000
  N   N14       1.0  0.60339  0.93005  0.76272  1.0000
  S   S29       1.0  0.55540  0.93123  0.75014  1.0000
  S   S30       1.0  0.56327  0.95362  0.76729  1.0000
  F   F29       1.0  0.54174  0.92311  0.75700  1.0000
  F   F30       1.0  0.57410  0.96282  0.75838  1.0000
  O   O57       1.0  0.56731  0.92322  0.75496  1.0000
  O   O58       1.0  0.55327  0.93093  0.73448  1.0000
  O   O59       1.0  0.55530  0.96416  0.77476  1.0000
  O   O60       1.0  0.57190  0.94435  0.77566  1.0000
  N   N15       1.0  0.55369  0.94680  0.75560  1.0000
  S   S31       1.0  0.51785  0.99709  0.72653  1.0000
  S   S32       1.0  0.54327  0.99133  0.74261  1.0000
  F   F31       1.0  0.51814  0.01445  0.72554  1.0000
  F   F32       1.0  0.54118  0.00571  0.75091  1.0000
  O   O61       1.0  0.50992  0.99398  0.73896  1.0000
  O   O62       1.0  0.51124  0.99340  0.71341  1.0000
  O   O63       1.0  0.53796  0.98020  0.75215  1.0000
  O   O64       1.0  0.55838  0.99117  0.73981  1.0000
  N   N16       1.0  0.53390  0.99277  0.72792  1.0000
  S   S33       1.0  0.56936  0.89648  0.72887  1.0000
  S   S34       1.0  0.55246  0.90501  0.70562  1.0000
  F   F33       1.0  0.57270  0.88093  0.72387  1.0000
  F   F34       1.0  0.53817  0.89781  0.70106  1.0000
  O   O65       1.0  0.56712  0.89377  0.74312  1.0000
  O   O66       1.0  0.58134  0.90435  0.72422  1.0000
  O   O67       1.0  0.54762  0.91939  0.70525  1.0000
  O   O68       1.0  0.56240  0.90200  0.69406  1.0000
  N   N17       1.0  0.55524  0.89939  0.72104  1.0000
  S   S35       1.0  0.47744  0.01710  0.74391  1.0000
  S   S36       1.0  0.47413  0.00409  0.71689  1.0000
  F   F35       1.0  0.46328  0.01197  0.75195  1.0000
  F   F36       1.0  0.46302  0.99180  0.71702  1.0000
  O   O69       1.0  0.47396  0.03071  0.73843  1.0000
  O   O70       1.0  0.48897  0.01736  0.75401  1.0000
  O   O71       1.0  0.46671  0.01705  0.71299  1.0000
  O   O72       1.0  0.48392  0.00089  0.70610  1.0000
  N   N18       1.0  0.48037  0.00518  0.73238  1.0000
  S   S37       1.0  0.47768  0.03340  0.64641  1.0000
  S   S38       1.0  0.47838  0.03591  0.67620  1.0000
  F   F37       1.0  0.49303  0.03811  0.64044  1.0000
  F   F38       1.0  0.49061  0.04711  0.67499  1.0000
  O   O73       1.0  0.46960  0.04622  0.64574  1.0000
  O   O74       1.0  0.47364  0.02261  0.63680  1.0000
  O   O75       1.0  0.46559  0.04438  0.67726  1.0000
  O   O76       1.0  0.48122  0.02706  0.68777  1.0000
  N   N19       1.0  0.47897  0.02679  0.66158  1.0000
  S   S39       1.0  0.47990  0.06184  0.70804  1.0000
  S   S40       1.0  0.50646  0.04896  0.70941  1.0000
  F   F39       1.0  0.47752  0.07459  0.71807  1.0000
  F   F40       1.0  0.51657  0.05493  0.72212  1.0000
  O   O77       1.0  0.47398  0.04969  0.71566  1.0000
  O   O78       1.0  0.47134  0.06589  0.69588  1.0000
  O   O79       1.0  0.50000  0.03654  0.71490  1.0000
  O   O80       1.0  0.51671  0.04607  0.69849  1.0000
  N   N20       1.0  0.49602  0.06094  0.70554  1.0000
  S   S41       1.0  0.43747  0.05340  0.71283  1.0000
  S   S42       1.0  0.44745  0.06574  0.73889  1.0000
  F   F41       1.0  0.42019  0.05136  0.71416  1.0000
  F   F42       1.0  0.43469  0.06047  0.74964  1.0000
  O   O81       1.0  0.44379  0.03979  0.71744  1.0000
  O   O82       1.0  0.44062  0.05777  0.69863  1.0000
  O   O83       1.0  0.45794  0.05532  0.74138  1.0000
  O   O84       1.0  0.45050  0.07957  0.74366  1.0000
  N   N21       1.0  0.44062  0.06594  0.72343  1.0000
  S   S43       1.0  0.47202  0.08154  0.60992  1.0000
  S   S44       1.0  0.47877  0.05366  0.60368  1.0000
  F   F43       1.0  0.47983  0.09048  0.62075  1.0000
  F   F44       1.0  0.49556  0.05463  0.60440  1.0000
  O   O85       1.0  0.45719  0.08536  0.61257  1.0000
  O   O86       1.0  0.47781  0.08534  0.59617  1.0000
  O   O87       1.0  0.47565  0.04089  0.61014  1.0000
  O   O88       1.0  0.47467  0.05537  0.58867  1.0000
  N   N22       1.0  0.47446  0.06554  0.61431  1.0000
  S   S45       1.0  0.44535  0.07960  0.65830  1.0000
  S   S46       1.0  0.44000  0.10658  0.64439  1.0000
  F   F45       1.0  0.43016  0.07365  0.66160  1.0000
  F   F46       1.0  0.45434  0.11443  0.64070  1.0000
  O   O89       1.0  0.45392  0.07480  0.66996  1.0000
  O   O90       1.0  0.44876  0.07259  0.64490  1.0000
  O   O91       1.0  0.43544  0.09946  0.63133  1.0000
  O   O92       1.0  0.43167  0.11781  0.64944  1.0000
  N   N23       1.0  0.44355  0.09594  0.65747  1.0000
  S   S47       1.0  0.43527  0.05674  0.60937  1.0000
  S   S48       1.0  0.43669  0.06528  0.58124  1.0000
  F   F47       1.0  0.42389  0.04460  0.61004  1.0000
  F   F48       1.0  0.43349  0.08042  0.58580  1.0000
  O   O93       1.0  0.42910  0.06967  0.61411  1.0000
  O   O94       1.0  0.44590  0.05279  0.61932  1.0000
  O   O95       1.0  0.44736  0.06684  0.57067  1.0000
  O   O96       1.0  0.42349  0.05891  0.57677  1.0000
  N   N24       1.0  0.44244  0.05650  0.59444  1.0000
  S   S49       1.0  0.48059  0.08677  0.55062  1.0000
  S   S50       1.0  0.47926  0.05706  0.54299  1.0000
  F   F49       1.0  0.49739  0.08820  0.54949  1.0000
  F   F50       1.0  0.49598  0.05587  0.54262  1.0000
  O   O97       1.0  0.47731  0.08269  0.56427  1.0000
  O   O98       1.0  0.47492  0.10010  0.54672  1.0000
  O   O99       1.0  0.47477  0.05230  0.55739  1.0000
  O   O100      1.0  0.47461  0.04739  0.53186  1.0000
  N   N25       1.0  0.47756  0.07366  0.54008  1.0000
  S   S51       1.0  0.47466  0.12572  0.58948  1.0000
  S   S52       1.0  0.44782  0.11149  0.59083  1.0000
  F   F51       1.0  0.48470  0.12525  0.60251  1.0000
  F   F52       1.0  0.43774  0.11955  0.58109  1.0000
  O   O101      1.0  0.47667  0.14009  0.58412  1.0000
  O   O102      1.0  0.48024  0.11579  0.57969  1.0000
  O   O103      1.0  0.45346  0.10055  0.58203  1.0000
  O   O104      1.0  0.43820  0.10772  0.60210  1.0000
  N   N26       1.0  0.45904  0.12336  0.59602  1.0000
  S   S53       1.0  0.48197  0.00145  0.52160  1.0000
  S   S54       1.0  0.46381  0.98069  0.50850  1.0000
  F   F53       1.0  0.49692  0.99873  0.51565  1.0000
  F   F54       1.0  0.46553  0.97379  0.52309  1.0000
  O   O105      1.0  0.48121  0.99518  0.53497  1.0000
  O   O106      1.0  0.48045  0.01635  0.52219  1.0000
  O   O107      1.0  0.44912  0.98315  0.50585  1.0000
  O   O108      1.0  0.47112  0.97079  0.49904  1.0000
  N   N27       1.0  0.47248  0.99538  0.50986  1.0000
