data_image0
_chemical_formula_structural       LiS2F2O4N
_chemical_formula_sum              "Li1 S2 F2 O4 N1"
_cell_length_a       93.5399
_cell_length_b       93.5399
_cell_length_c       93.5399
_cell_angle_alpha    90
_cell_angle_beta     90
_cell_angle_gamma    90

_space_group_name_H-M_alt    "P 1"
_space_group_IT_number       1

loop_
  _space_group_symop_operation_xyz
  'x, y, z'

loop_
  _atom_site_type_symbol
  _atom_site_label
  _atom_site_symmetry_multiplicity
  _atom_site_fract_x
  _atom_site_fract_y
  _atom_site_fract_z
  _atom_site_occupancy
  Li  Li1       1.0  0.89741  0.71789  0.07647  1.0000
  S   S1        1.0  0.88475  0.74551  0.08705  1.0000
  S   S2        1.0  0.91184  0.73627  0.09601  1.0000
  F   F1        1.0  0.87726  0.74001  0.10093  1.0000
  F   F2        1.0  0.91520  0.73870  0.11182  1.0000
  O   O1        1.0  0.88443  0.73386  0.07676  1.0000
  O   O2        1.0  0.87609  0.75783  0.08370  1.0000
  O   O3        1.0  0.90685  0.72240  0.09347  1.0000
  O   O4        1.0  0.92549  0.73850  0.08886  1.0000
  N   N1        1.0  0.90047  0.74838  0.09229  1.0000
