data_image0
_chemical_formula_structural       S2F2O4N
_chemical_formula_sum              "S2 F2 O4 N1"
_cell_length_a       93.5399
_cell_length_b       93.5399
_cell_length_c       93.5399
_cell_angle_alpha    90
_cell_angle_beta     90
_cell_angle_gamma    90

_space_group_name_H-M_alt    "P 1"
_space_group_IT_number       1

loop_
  _space_group_symop_operation_xyz
  'x, y, z'

loop_
  _atom_site_type_symbol
  _atom_site_label
  _atom_site_symmetry_multiplicity
  _atom_site_fract_x
  _atom_site_fract_y
  _atom_site_fract_z
  _atom_site_occupancy
  S   S1        1.0  0.82367  0.87598  0.59953  1.0000
  S   S2        1.0  0.81699  0.88203  0.57167  1.0000
  F   F1        1.0  0.82320  0.89120  0.60637  1.0000
  F   F2        1.0  0.81370  0.86885  0.56047  1.0000
  O   O1        1.0  0.83825  0.87231  0.59700  1.0000
  O   O2        1.0  0.81810  0.86683  0.61051  1.0000
  O   O3        1.0  0.80718  0.89257  0.56786  1.0000
  O   O4        1.0  0.83170  0.88598  0.56935  1.0000
  N   N1        1.0  0.81333  0.87706  0.58728  1.0000
