data_image0
_chemical_formula_structural       S2F2O4N
_chemical_formula_sum              "S2 F2 O4 N1"
_cell_length_a       93.5399
_cell_length_b       93.5399
_cell_length_c       93.5399
_cell_angle_alpha    90
_cell_angle_beta     90
_cell_angle_gamma    90

_space_group_name_H-M_alt    "P 1"
_space_group_IT_number       1

loop_
  _space_group_symop_operation_xyz
  'x, y, z'

loop_
  _atom_site_type_symbol
  _atom_site_label
  _atom_site_symmetry_multiplicity
  _atom_site_fract_x
  _atom_site_fract_y
  _atom_site_fract_z
  _atom_site_occupancy
  S   S1        1.0  0.77201  0.60347  0.04532  1.0000
  S   S2        1.0  0.76443  0.60786  0.07424  1.0000
  F   F1        1.0  0.78699  0.61200  0.04394  1.0000
  F   F2        1.0  0.74833  0.60623  0.07151  1.0000
  O   O1        1.0  0.76147  0.61346  0.04150  1.0000
  O   O2        1.0  0.77355  0.59226  0.03556  1.0000
  O   O3        1.0  0.76683  0.59992  0.08719  1.0000
  O   O4        1.0  0.76850  0.62228  0.07462  1.0000
  N   N1        1.0  0.77058  0.59791  0.06097  1.0000
