data_image0
_chemical_formula_structural       S2F2O4N
_chemical_formula_sum              "S2 F2 O4 N1"
_cell_length_a       93.5399
_cell_length_b       93.5399
_cell_length_c       93.5399
_cell_angle_alpha    90
_cell_angle_beta     90
_cell_angle_gamma    90

_space_group_name_H-M_alt    "P 1"
_space_group_IT_number       1

loop_
  _space_group_symop_operation_xyz
  'x, y, z'

loop_
  _atom_site_type_symbol
  _atom_site_label
  _atom_site_symmetry_multiplicity
  _atom_site_fract_x
  _atom_site_fract_y
  _atom_site_fract_z
  _atom_site_occupancy
  S   S1        1.0  0.60123  0.26650  0.50540  1.0000
  S   S2        1.0  0.58449  0.24052  0.50330  1.0000
  F   F1        1.0  0.59516  0.28074  0.51148  1.0000
  F   F2        1.0  0.59686  0.22923  0.50383  1.0000
  O   O1        1.0  0.60165  0.27020  0.49040  1.0000
  O   O2        1.0  0.61492  0.26585  0.51249  1.0000
  O   O3        1.0  0.57392  0.23406  0.51314  1.0000
  O   O4        1.0  0.58163  0.24244  0.48852  1.0000
  N   N1        1.0  0.59027  0.25426  0.51082  1.0000
