data_image0
_chemical_formula_structural       S2F2O4N
_chemical_formula_sum              "S2 F2 O4 N1"
_cell_length_a       93.5399
_cell_length_b       93.5399
_cell_length_c       93.5399
_cell_angle_alpha    90
_cell_angle_beta     90
_cell_angle_gamma    90

_space_group_name_H-M_alt    "P 1"
_space_group_IT_number       1

loop_
  _space_group_symop_operation_xyz
  'x, y, z'

loop_
  _atom_site_type_symbol
  _atom_site_label
  _atom_site_symmetry_multiplicity
  _atom_site_fract_x
  _atom_site_fract_y
  _atom_site_fract_z
  _atom_site_occupancy
  S   S1        1.0  0.10852  0.55869  0.69467  1.0000
  S   S2        1.0  0.08262  0.56352  0.67880  1.0000
  F   F1        1.0  0.10576  0.54811  0.70710  1.0000
  F   F2        1.0  0.08303  0.57754  0.67259  1.0000
  O   O1        1.0  0.11852  0.56871  0.70064  1.0000
  O   O2        1.0  0.11471  0.55035  0.68369  1.0000
  O   O3        1.0  0.08705  0.55429  0.66715  1.0000
  O   O4        1.0  0.06807  0.56188  0.68316  1.0000
  N   N1        1.0  0.09331  0.56481  0.69189  1.0000
