data_image0
_chemical_formula_structural       S2F2O4N
_chemical_formula_sum              "S2 F2 O4 N1"
_cell_length_a       93.5399
_cell_length_b       93.5399
_cell_length_c       93.5399
_cell_angle_alpha    90
_cell_angle_beta     90
_cell_angle_gamma    90

_space_group_name_H-M_alt    "P 1"
_space_group_IT_number       1

loop_
  _space_group_symop_operation_xyz
  'x, y, z'

loop_
  _atom_site_type_symbol
  _atom_site_label
  _atom_site_symmetry_multiplicity
  _atom_site_fract_x
  _atom_site_fract_y
  _atom_site_fract_z
  _atom_site_occupancy
  S   S1        1.0  0.24413  0.95998  0.84695  1.0000
  S   S2        1.0  0.21677  0.95920  0.85960  1.0000
  F   F1        1.0  0.24280  0.96027  0.83071  1.0000
  F   F2        1.0  0.20591  0.96339  0.84779  1.0000
  O   O1        1.0  0.25719  0.95230  0.84998  1.0000
  O   O2        1.0  0.24546  0.97471  0.85109  1.0000
  O   O3        1.0  0.21041  0.94774  0.86748  1.0000
  O   O4        1.0  0.21863  0.97191  0.86714  1.0000
  N   N1        1.0  0.23030  0.95210  0.85175  1.0000
