data_image0
_chemical_formula_structural       S2F2O4N
_chemical_formula_sum              "S2 F2 O4 N1"
_cell_length_a       93.5399
_cell_length_b       93.5399
_cell_length_c       93.5399
_cell_angle_alpha    90
_cell_angle_beta     90
_cell_angle_gamma    90

_space_group_name_H-M_alt    "P 1"
_space_group_IT_number       1

loop_
  _space_group_symop_operation_xyz
  'x, y, z'

loop_
  _atom_site_type_symbol
  _atom_site_label
  _atom_site_symmetry_multiplicity
  _atom_site_fract_x
  _atom_site_fract_y
  _atom_site_fract_z
  _atom_site_occupancy
  S   S1        1.0  0.29388  0.73602  0.86186  1.0000
  S   S2        1.0  0.26681  0.74046  0.87393  1.0000
  F   F1        1.0  0.30343  0.74854  0.86889  1.0000
  F   F2        1.0  0.26160  0.72505  0.87010  1.0000
  O   O1        1.0  0.29927  0.73678  0.84760  1.0000
  O   O2        1.0  0.29704  0.72248  0.86905  1.0000
  O   O3        1.0  0.27128  0.73982  0.88808  1.0000
  O   O4        1.0  0.25509  0.75056  0.87257  1.0000
  N   N1        1.0  0.27804  0.74215  0.86249  1.0000
