data_image0
_chemical_formula_structural       S2F2O4N
_chemical_formula_sum              "S2 F2 O4 N1"
_cell_length_a       93.5399
_cell_length_b       93.5399
_cell_length_c       93.5399
_cell_angle_alpha    90
_cell_angle_beta     90
_cell_angle_gamma    90

_space_group_name_H-M_alt    "P 1"
_space_group_IT_number       1

loop_
  _space_group_symop_operation_xyz
  'x, y, z'

loop_
  _atom_site_type_symbol
  _atom_site_label
  _atom_site_symmetry_multiplicity
  _atom_site_fract_x
  _atom_site_fract_y
  _atom_site_fract_z
  _atom_site_occupancy
  S   S1        1.0  0.39954  0.75385  0.24455  1.0000
  S   S2        1.0  0.40544  0.78181  0.23369  1.0000
  F   F1        1.0  0.39702  0.74388  0.23179  1.0000
  F   F2        1.0  0.39368  0.78054  0.22201  1.0000
  O   O1        1.0  0.38548  0.75786  0.24890  1.0000
  O   O2        1.0  0.40630  0.74488  0.25391  1.0000
  O   O3        1.0  0.39934  0.78900  0.24505  1.0000
  O   O4        1.0  0.41659  0.78969  0.22731  1.0000
  N   N1        1.0  0.40935  0.76611  0.23730  1.0000
