data_image0
_chemical_formula_structural       LiS2F2O4N
_chemical_formula_sum              "Li1 S2 F2 O4 N1"
_cell_length_a       93.5399
_cell_length_b       93.5399
_cell_length_c       93.5399
_cell_angle_alpha    90
_cell_angle_beta     90
_cell_angle_gamma    90

_space_group_name_H-M_alt    "P 1"
_space_group_IT_number       1

loop_
  _space_group_symop_operation_xyz
  'x, y, z'

loop_
  _atom_site_type_symbol
  _atom_site_label
  _atom_site_symmetry_multiplicity
  _atom_site_fract_x
  _atom_site_fract_y
  _atom_site_fract_z
  _atom_site_occupancy
  Li  Li1       1.0  0.45581  0.11567  0.06820  1.0000
  S   S1        1.0  0.44859  0.14579  0.06617  1.0000
  S   S2        1.0  0.43428  0.12557  0.08459  1.0000
  F   F1        1.0  0.44177  0.15120  0.05119  1.0000
  F   F2        1.0  0.44257  0.12744  0.09908  1.0000
  O   O1        1.0  0.45702  0.13413  0.06105  1.0000
  O   O2        1.0  0.45645  0.15764  0.07183  1.0000
  O   O3        1.0  0.41943  0.12443  0.08745  1.0000
  O   O4        1.0  0.44086  0.11416  0.07813  1.0000
  N   N1        1.0  0.43679  0.14116  0.07757  1.0000
